Program Version,EnergyPlus, Version 8.6.0-198c6a3cff, YMD=2017.03.26 12:27
! This file shows details about the branches, nodes, and other
! elements of the flow connections.
! This file is intended for use in "debugging" potential problems
! that may also be detected by the program, but may be more easily
! identified by "eye".
! This file is also intended to support software which draws a
! schematic diagram of the HVAC system.
! ===============================================================
! #Nodes,<Number of Unique Nodes>
 #Nodes,98
! <Node>,<NodeNumber>,<Node Name>,<Node Fluid Type>,<# Times Node Referenced After Definition>
 Node,1,NODE 46,Air,4
 Node,2,NODE 40,Air,4
 Node,3,NODE 37,Air,4
 Node,4,NODE 43,Air,4
 Node,5,NODE 5,Air,4
 Node,6,NODE 61,Air,4
 Node,7,NODE 55,Air,4
 Node,8,NODE 52,Air,4
 Node,9,NODE 58,Air,4
 Node,10,NODE 49,Air,4
 Node,11,NODE 76,Air,4
 Node,12,NODE 70,Air,4
 Node,13,NODE 67,Air,4
 Node,14,NODE 73,Air,4
 Node,15,NODE 64,Air,4
 Node,16,NODE 2,Air,17
 Node,17,NODE 3,Air,3
 Node,18,NODE 1,Air,3
 Node,19,NODE 8,Air,7
 Node,20,NODE 9,Air,7
 Node,21,NODE 10,Air,11
 Node,22,NODE 12,Water,2
 Node,23,NODE 18,Water,1
 Node,24,NODE 14,Water,1
 Node,25,NODE 19,Water,1
 Node,26,SWPLANT 465 SUPPLY OUTLET PIPE NODE,Water,1
 Node,27,NODE 13,Water,4
 Node,28,NODE 15,Water,2
 Node,29,SWPLANT 465 DEMAND INLET PIPE NODE,Water,1
 Node,30,NODE 17,Water,1
 Node,31,NODE 20,Water,1
 Node,32,SWPLANT 465 DEMAND BYPASS PIPE INLET NODE,Water,1
 Node,33,SWPLANT 465 DEMAND BYPASS PIPE OUTLET NODE,Water,1
 Node,34,SWPLANT 465 DEMAND OUTLET PIPE NODE,Water,1
 Node,35,NODE 16,Water,2
 Node,36,NODE 6,Air,2
 Node,37,NODE 25,Air,0
 Node,38,NODE 47,Air,1
 Node,39,NODE 23,Air,0
 Node,40,NODE 41,Air,1
 Node,41,NODE 22,Air,0
 Node,42,NODE 38,Air,1
 Node,43,NODE 24,Air,0
 Node,44,NODE 44,Air,1
 Node,45,NODE 21,Air,0
 Node,46,NODE 11,Air,1
 Node,47,NODE 30,Air,0
 Node,48,NODE 62,Air,1
 Node,49,NODE 28,Air,0
 Node,50,NODE 56,Air,1
 Node,51,NODE 27,Air,0
 Node,52,NODE 53,Air,1
 Node,53,NODE 29,Air,0
 Node,54,NODE 59,Air,1
 Node,55,NODE 26,Air,0
 Node,56,NODE 50,Air,1
 Node,57,NODE 35,Air,0
 Node,58,NODE 77,Air,1
 Node,59,NODE 33,Air,0
 Node,60,NODE 71,Air,1
 Node,61,NODE 32,Air,0
 Node,62,NODE 68,Air,1
 Node,63,NODE 34,Air,0
 Node,64,NODE 74,Air,1
 Node,65,NODE 31,Air,0
 Node,66,NODE 65,Air,1
 Node,67,NODE 4,Air,2
 Node,68,NODE 36,Air,1
 Node,69,NODE 39,Air,1
 Node,70,NODE 42,Air,1
 Node,71,NODE 45,Air,1
 Node,72,NODE 48,Air,1
 Node,73,NODE 51,Air,1
 Node,74,NODE 54,Air,1
 Node,75,NODE 57,Air,1
 Node,76,NODE 60,Air,1
 Node,77,NODE 63,Air,1
 Node,78,NODE 66,Air,1
 Node,79,NODE 69,Air,1
 Node,80,NODE 72,Air,1
 Node,81,NODE 75,Air,1
 Node,82,NODE 78,Air,1
 Node,83,AIR TERMINAL SINGLE DUCT VAV REHEAT 6 DAMPER OUTLET,Air,1
 Node,84,AIR TERMINAL SINGLE DUCT VAV REHEAT 4 DAMPER OUTLET,Air,1
 Node,85,AIR TERMINAL SINGLE DUCT VAV REHEAT 3 DAMPER OUTLET,Air,1
 Node,86,AIR TERMINAL SINGLE DUCT VAV REHEAT 5 DAMPER OUTLET,Air,1
 Node,87,AIR TERMINAL SINGLE DUCT VAV REHEAT 2 DAMPER OUTLET,Air,1
 Node,88,AIR TERMINAL SINGLE DUCT VAV REHEAT 11 DAMPER OUTLET,Air,1
 Node,89,AIR TERMINAL SINGLE DUCT VAV REHEAT 9 DAMPER OUTLET,Air,1
 Node,90,AIR TERMINAL SINGLE DUCT VAV REHEAT 8 DAMPER OUTLET,Air,1
 Node,91,AIR TERMINAL SINGLE DUCT VAV REHEAT 10 DAMPER OUTLET,Air,1
 Node,92,AIR TERMINAL SINGLE DUCT VAV REHEAT 7 DAMPER OUTLET,Air,1
 Node,93,AIR TERMINAL SINGLE DUCT VAV REHEAT 16 DAMPER OUTLET,Air,1
 Node,94,AIR TERMINAL SINGLE DUCT VAV REHEAT 14 DAMPER OUTLET,Air,1
 Node,95,AIR TERMINAL SINGLE DUCT VAV REHEAT 13 DAMPER OUTLET,Air,1
 Node,96,AIR TERMINAL SINGLE DUCT VAV REHEAT 15 DAMPER OUTLET,Air,1
 Node,97,AIR TERMINAL SINGLE DUCT VAV REHEAT 12 DAMPER OUTLET,Air,1
 Node,98,NODE 7,Air,1
! ===============================================================
! Suspicious nodes have 0 references.  It is normal for some nodes, however.
! Listing nodes with 0 references (culled from previous list):
! <Suspicious Node>,<NodeNumber>,<Node Name>,<Node Fluid Type>,<# Times Node Referenced After Definition>
 Suspicious Node,37,NODE 25,Air,0
 Suspicious Node,39,NODE 23,Air,0
 Suspicious Node,41,NODE 22,Air,0
 Suspicious Node,43,NODE 24,Air,0
 Suspicious Node,45,NODE 21,Air,0
 Suspicious Node,47,NODE 30,Air,0
 Suspicious Node,49,NODE 28,Air,0
 Suspicious Node,51,NODE 27,Air,0
 Suspicious Node,53,NODE 29,Air,0
 Suspicious Node,55,NODE 26,Air,0
 Suspicious Node,57,NODE 35,Air,0
 Suspicious Node,59,NODE 33,Air,0
 Suspicious Node,61,NODE 32,Air,0
 Suspicious Node,63,NODE 34,Air,0
 Suspicious Node,65,NODE 31,Air,0
! ===============================================================
! <#Branch Lists>,<Number of Branch Lists>
 #Branch Lists,3
! <Branch List>,<Branch List Count>,<Branch List Name>,<Loop Name>,<Loop Type>,<Number of Branches>
! <Branch>,<Branch Count>,<Branch Name>,<Loop Name>,<Loop Type>,<Branch Inlet Node Name>,<Branch Outlet Node Name>
 Branch List,1,AIRLOOP 493 SUPPLY BRANCHES,AIRLOOP 493,Air,1
   Branch,1,AIRLOOP 493 MAIN BRANCH,AIRLOOP 493,Air,NODE 1,NODE 2
 Branch List,2,SWPLANT 465 SUPPLY BRANCHES,SWPLANT 465,Plant Supply,3
   Branch,1,SWPLANT 465 SUPPLY INLET BRANCH,SWPLANT 465,Plant Supply,NODE 12,NODE 18
   Branch,2,SWPLANT 465 SUPPLY BRANCH 1,SWPLANT 465,Plant Supply,NODE 14,NODE 19
   Branch,3,SWPLANT 465 SUPPLY OUTLET BRANCH,SWPLANT 465,Plant Supply,SWPLANT 465 SUPPLY OUTLET PIPE NODE,NODE 13
 Branch List,3,SWPLANT 465 DEMAND BRANCHES,SWPLANT 465,Plant Demand,4
   Branch,1,SWPLANT 465 DEMAND INLET BRANCH,SWPLANT 465,Plant Demand,NODE 15,SWPLANT 465 DEMAND INLET PIPE NODE
   Branch,2,SWPLANT 465 DEMAND BRANCH 1,SWPLANT 465,Plant Demand,NODE 17,NODE 20
   Branch,3,SWPLANT 465 DEMAND BYPASS BRANCH,SWPLANT 465,Plant Demand,SWPLANT 465 DEMAND BYPASS PIPE INLET NODE,SWPLANT 465 DEMAND BYPASS PIPE OUTLET NODE
   Branch,4,SWPLANT 465 DEMAND OUTLET BRANCH,SWPLANT 465,Plant Demand,SWPLANT 465 DEMAND OUTLET PIPE NODE,NODE 16
! ===============================================================
! <#Supply Air Paths>,<Number of Supply Air Paths>
 #Supply Air Paths,1
! <Supply Air Path>,<Supply Air Path Count>,<Supply Air Path Name>,<AirLoopHVAC Name>
! <#Components on Supply Air Path>,<Number of Components>
! <Supply Air Path Component>,<Component Count>,<Component Type>,<Component Name>,<AirLoopHVAC Name>
! <#Outlet Nodes on Supply Air Path Component>,<Number of Nodes>
! <Supply Air Path Component Nodes>,<Node Count>,<Component Type>,<Component Name>,<Inlet Node Name>,<Outlet Node Name>,<AirLoopHVAC Name>
 Supply Air Path,1,AIRLOOP 493 NODE 3 SUPPLY PATH,AIRLOOP 493
   #Components on Supply Air Path,1
   Supply Air Path Component,1,AIRLOOPHVAC:ZONESPLITTER,AIR LOOP HVAC ZONE SPLITTER 1,AIRLOOP 493
     #Outlet Nodes on Supply Air Path Component,15
     Supply Air Path Component Nodes,1,AIRLOOPHVAC:ZONESPLITTER,AIR LOOP HVAC ZONE SPLITTER 1,NODE 3,NODE 36,AIRLOOP 493
     Supply Air Path Component Nodes,2,AIRLOOPHVAC:ZONESPLITTER,AIR LOOP HVAC ZONE SPLITTER 1,NODE 3,NODE 39,AIRLOOP 493
     Supply Air Path Component Nodes,3,AIRLOOPHVAC:ZONESPLITTER,AIR LOOP HVAC ZONE SPLITTER 1,NODE 3,NODE 42,AIRLOOP 493
     Supply Air Path Component Nodes,4,AIRLOOPHVAC:ZONESPLITTER,AIR LOOP HVAC ZONE SPLITTER 1,NODE 3,NODE 45,AIRLOOP 493
     Supply Air Path Component Nodes,5,AIRLOOPHVAC:ZONESPLITTER,AIR LOOP HVAC ZONE SPLITTER 1,NODE 3,NODE 48,AIRLOOP 493
     Supply Air Path Component Nodes,6,AIRLOOPHVAC:ZONESPLITTER,AIR LOOP HVAC ZONE SPLITTER 1,NODE 3,NODE 51,AIRLOOP 493
     Supply Air Path Component Nodes,7,AIRLOOPHVAC:ZONESPLITTER,AIR LOOP HVAC ZONE SPLITTER 1,NODE 3,NODE 54,AIRLOOP 493
     Supply Air Path Component Nodes,8,AIRLOOPHVAC:ZONESPLITTER,AIR LOOP HVAC ZONE SPLITTER 1,NODE 3,NODE 57,AIRLOOP 493
     Supply Air Path Component Nodes,9,AIRLOOPHVAC:ZONESPLITTER,AIR LOOP HVAC ZONE SPLITTER 1,NODE 3,NODE 60,AIRLOOP 493
     Supply Air Path Component Nodes,10,AIRLOOPHVAC:ZONESPLITTER,AIR LOOP HVAC ZONE SPLITTER 1,NODE 3,NODE 63,AIRLOOP 493
     Supply Air Path Component Nodes,11,AIRLOOPHVAC:ZONESPLITTER,AIR LOOP HVAC ZONE SPLITTER 1,NODE 3,NODE 66,AIRLOOP 493
     Supply Air Path Component Nodes,12,AIRLOOPHVAC:ZONESPLITTER,AIR LOOP HVAC ZONE SPLITTER 1,NODE 3,NODE 69,AIRLOOP 493
     Supply Air Path Component Nodes,13,AIRLOOPHVAC:ZONESPLITTER,AIR LOOP HVAC ZONE SPLITTER 1,NODE 3,NODE 72,AIRLOOP 493
     Supply Air Path Component Nodes,14,AIRLOOPHVAC:ZONESPLITTER,AIR LOOP HVAC ZONE SPLITTER 1,NODE 3,NODE 75,AIRLOOP 493
     Supply Air Path Component Nodes,15,AIRLOOPHVAC:ZONESPLITTER,AIR LOOP HVAC ZONE SPLITTER 1,NODE 3,NODE 78,AIRLOOP 493
! <#Nodes on Supply Air Path>,<Number of Nodes>
! <Supply Air Path Node>,<Node Type>,<Node Count>,<Node Name>,<AirLoopHVAC Name>
#Nodes on Supply Air Path,16
   Supply Air Path Node,Inlet Node,1,NODE 3,AIRLOOP 493
   Supply Air Path Node,Outlet Node,2,NODE 36,AIRLOOP 493
   Supply Air Path Node,Outlet Node,3,NODE 39,AIRLOOP 493
   Supply Air Path Node,Outlet Node,4,NODE 42,AIRLOOP 493
   Supply Air Path Node,Outlet Node,5,NODE 45,AIRLOOP 493
   Supply Air Path Node,Outlet Node,6,NODE 48,AIRLOOP 493
   Supply Air Path Node,Outlet Node,7,NODE 51,AIRLOOP 493
   Supply Air Path Node,Outlet Node,8,NODE 54,AIRLOOP 493
   Supply Air Path Node,Outlet Node,9,NODE 57,AIRLOOP 493
   Supply Air Path Node,Outlet Node,10,NODE 60,AIRLOOP 493
   Supply Air Path Node,Outlet Node,11,NODE 63,AIRLOOP 493
   Supply Air Path Node,Outlet Node,12,NODE 66,AIRLOOP 493
   Supply Air Path Node,Outlet Node,13,NODE 69,AIRLOOP 493
   Supply Air Path Node,Outlet Node,14,NODE 72,AIRLOOP 493
   Supply Air Path Node,Outlet Node,15,NODE 75,AIRLOOP 493
   Supply Air Path Node,Outlet Node,16,NODE 78,AIRLOOP 493
! ===============================================================
! <#Return Air Paths>,<Number of Return Air Paths>
 #Return Air Paths,1
! <Return Air Path>,<Return Air Path Count>,<Return Air Path Name>,<AirLoopHVAC Name>
! <#Components on Return Air Path>,<Number of Components>
! <Return Air Path Component>,<Component Count>,<Component Type>,<Component Name>,<AirLoopHVAC Name>
! <#Inlet Nodes on Return Air Path Component>,<Number of Nodes>
! <Return Air Path Component Nodes>,<Node Count>,<Component Type>,<Component Name>,<Inlet Node Name>,<Outlet Node Name>,<AirLoopHVAC Name>
 Return Air Path,1,AIRLOOP 493 RETURN PATH,AIRLOOP 493
   #Components on Return Air Path,1
   Return Air Path Component,1,AIRLOOPHVAC:ZONEMIXER,AIR LOOP HVAC ZONE MIXER 1,AIRLOOP 493
     #Inlet Nodes on Return Air Path Component,15
     Return Air Path Component Nodes,1,AIRLOOPHVAC:ZONEMIXER,AIR LOOP HVAC ZONE MIXER 1,NODE 11,NODE 4,AIRLOOP 493
     Return Air Path Component Nodes,2,AIRLOOPHVAC:ZONEMIXER,AIR LOOP HVAC ZONE MIXER 1,NODE 38,NODE 4,AIRLOOP 493
     Return Air Path Component Nodes,3,AIRLOOPHVAC:ZONEMIXER,AIR LOOP HVAC ZONE MIXER 1,NODE 41,NODE 4,AIRLOOP 493
     Return Air Path Component Nodes,4,AIRLOOPHVAC:ZONEMIXER,AIR LOOP HVAC ZONE MIXER 1,NODE 44,NODE 4,AIRLOOP 493
     Return Air Path Component Nodes,5,AIRLOOPHVAC:ZONEMIXER,AIR LOOP HVAC ZONE MIXER 1,NODE 47,NODE 4,AIRLOOP 493
     Return Air Path Component Nodes,6,AIRLOOPHVAC:ZONEMIXER,AIR LOOP HVAC ZONE MIXER 1,NODE 50,NODE 4,AIRLOOP 493
     Return Air Path Component Nodes,7,AIRLOOPHVAC:ZONEMIXER,AIR LOOP HVAC ZONE MIXER 1,NODE 53,NODE 4,AIRLOOP 493
     Return Air Path Component Nodes,8,AIRLOOPHVAC:ZONEMIXER,AIR LOOP HVAC ZONE MIXER 1,NODE 56,NODE 4,AIRLOOP 493
     Return Air Path Component Nodes,9,AIRLOOPHVAC:ZONEMIXER,AIR LOOP HVAC ZONE MIXER 1,NODE 59,NODE 4,AIRLOOP 493
     Return Air Path Component Nodes,10,AIRLOOPHVAC:ZONEMIXER,AIR LOOP HVAC ZONE MIXER 1,NODE 62,NODE 4,AIRLOOP 493
     Return Air Path Component Nodes,11,AIRLOOPHVAC:ZONEMIXER,AIR LOOP HVAC ZONE MIXER 1,NODE 65,NODE 4,AIRLOOP 493
     Return Air Path Component Nodes,12,AIRLOOPHVAC:ZONEMIXER,AIR LOOP HVAC ZONE MIXER 1,NODE 68,NODE 4,AIRLOOP 493
     Return Air Path Component Nodes,13,AIRLOOPHVAC:ZONEMIXER,AIR LOOP HVAC ZONE MIXER 1,NODE 71,NODE 4,AIRLOOP 493
     Return Air Path Component Nodes,14,AIRLOOPHVAC:ZONEMIXER,AIR LOOP HVAC ZONE MIXER 1,NODE 74,NODE 4,AIRLOOP 493
     Return Air Path Component Nodes,15,AIRLOOPHVAC:ZONEMIXER,AIR LOOP HVAC ZONE MIXER 1,NODE 77,NODE 4,AIRLOOP 493
! <#Nodes on Return Air Path>,<Number of Nodes>
! <Return Air Path Node>,<Node Type>,<Node Count>,<Node Name>,<AirLoopHVAC Name>
   #Nodes on Return Air Path,16
   Return Air Path Node,Outlet Node,1,NODE 4,AIRLOOP 493
   Return Air Path Node,Inlet Node,2,NODE 11,AIRLOOP 493
   Return Air Path Node,Inlet Node,3,NODE 38,AIRLOOP 493
   Return Air Path Node,Inlet Node,4,NODE 41,AIRLOOP 493
   Return Air Path Node,Inlet Node,5,NODE 44,AIRLOOP 493
   Return Air Path Node,Inlet Node,6,NODE 47,AIRLOOP 493
   Return Air Path Node,Inlet Node,7,NODE 50,AIRLOOP 493
   Return Air Path Node,Inlet Node,8,NODE 53,AIRLOOP 493
   Return Air Path Node,Inlet Node,9,NODE 56,AIRLOOP 493
   Return Air Path Node,Inlet Node,10,NODE 59,AIRLOOP 493
   Return Air Path Node,Inlet Node,11,NODE 62,AIRLOOP 493
   Return Air Path Node,Inlet Node,12,NODE 65,AIRLOOP 493
   Return Air Path Node,Inlet Node,13,NODE 68,AIRLOOP 493
   Return Air Path Node,Inlet Node,14,NODE 71,AIRLOOP 493
   Return Air Path Node,Inlet Node,15,NODE 74,AIRLOOP 493
   Return Air Path Node,Inlet Node,16,NODE 77,AIRLOOP 493
! ===============================================================
! #Outdoor Air Nodes,<Number of Outdoor Air Nodes>
 #Outdoor Air Nodes,1
! <Outdoor Air Node>,<NodeNumber>,<Node Name>
 Outdoor Air Node,36,NODE 6
! ===============================================================
! <#Component Sets>,<Number of Component Sets>
 #Component Sets,43
! <Component Set>,<Component Set Count>,<Parent Object Type>,<Parent Object Name>,<Component Type>,<Component Name>,<Inlet Node ID>,<Outlet Node ID>,<Description>
 Component Set,1,BRANCH,AIRLOOP 493 MAIN BRANCH,AIRLOOPHVAC:OUTDOORAIRSYSTEM,AIR LOOP HVAC OUTDOOR AIR SYSTEM 1,NODE 1,NODE 8,Air Nodes
 Component Set,2,BRANCH,AIRLOOP 493 MAIN BRANCH,COILSYSTEM:COOLING:DX,COIL COOLING DX TWO SPEED 1 COILSYSTEM,NODE 8,NODE 9,Air Nodes
 Component Set,3,BRANCH,AIRLOOP 493 MAIN BRANCH,COIL:HEATING:ELECTRIC,COIL HEATING ELECTRIC 1,NODE 9,NODE 10,Air Nodes
 Component Set,4,BRANCH,AIRLOOP 493 MAIN BRANCH,FAN:VARIABLEVOLUME,FAN VARIABLE VOLUME 1,NODE 10,NODE 2,Air Nodes
 Component Set,5,BRANCH,SWPLANT 465 SUPPLY INLET BRANCH,PUMP:VARIABLESPEED,SHW: PUMP FOR SERVICE HOT WATER,NODE 12,NODE 18,Water Nodes
 Component Set,6,BRANCH,SWPLANT 465 SUPPLY BRANCH 1,WATERHEATER:MIXED,WATER HEATER MIXED 1,NODE 14,NODE 19,Use Side Water Nodes
 Component Set,7,BRANCH,SWPLANT 465 SUPPLY OUTLET BRANCH,PIPE:ADIABATIC,SWPLANT 465 SUPPLY OUTLET PIPE,SWPLANT 465 SUPPLY OUTLET PIPE NODE,NODE 13,Pipe Nodes
 Component Set,8,BRANCH,SWPLANT 465 DEMAND INLET BRANCH,PIPE:ADIABATIC,SWPLANT 465 DEMAND INLET PIPE,NODE 15,SWPLANT 465 DEMAND INLET PIPE NODE,Pipe Nodes
 Component Set,9,BRANCH,SWPLANT 465 DEMAND BRANCH 1,WATERUSE:CONNECTIONS,WATER USE CONNECTIONS 1,NODE 17,NODE 20,DHW Nodes
 Component Set,10,BRANCH,SWPLANT 465 DEMAND BYPASS BRANCH,PIPE:ADIABATIC,SWPLANT 465 DEMAND BYPASS PIPE,SWPLANT 465 DEMAND BYPASS PIPE INLET NODE,SWPLANT 465 DEMAND BYPASS PIPE OUTLET NODE,Pipe Nodes
 Component Set,11,BRANCH,SWPLANT 465 DEMAND OUTLET BRANCH,PIPE:ADIABATIC,SWPLANT 465 DEMAND OUTLET PIPE,SWPLANT 465 DEMAND OUTLET PIPE NODE,NODE 16,Pipe Nodes
 Component Set,12,ZONEHVAC:AIRDISTRIBUTIONUNIT,ADU AIR TERMINAL SINGLE DUCT VAV REHEAT 6,AIRTERMINAL:SINGLEDUCT:VAV:REHEAT,AIR TERMINAL SINGLE DUCT VAV REHEAT 6,NODE 48,NODE 46,Air Nodes
 Component Set,13,ZONEHVAC:AIRDISTRIBUTIONUNIT,ADU AIR TERMINAL SINGLE DUCT VAV REHEAT 4,AIRTERMINAL:SINGLEDUCT:VAV:REHEAT,AIR TERMINAL SINGLE DUCT VAV REHEAT 4,NODE 42,NODE 40,Air Nodes
 Component Set,14,ZONEHVAC:AIRDISTRIBUTIONUNIT,ADU AIR TERMINAL SINGLE DUCT VAV REHEAT 3,AIRTERMINAL:SINGLEDUCT:VAV:REHEAT,AIR TERMINAL SINGLE DUCT VAV REHEAT 3,NODE 39,NODE 37,Air Nodes
 Component Set,15,ZONEHVAC:AIRDISTRIBUTIONUNIT,ADU AIR TERMINAL SINGLE DUCT VAV REHEAT 5,AIRTERMINAL:SINGLEDUCT:VAV:REHEAT,AIR TERMINAL SINGLE DUCT VAV REHEAT 5,NODE 45,NODE 43,Air Nodes
 Component Set,16,ZONEHVAC:AIRDISTRIBUTIONUNIT,ADU AIR TERMINAL SINGLE DUCT VAV REHEAT 2,AIRTERMINAL:SINGLEDUCT:VAV:REHEAT,AIR TERMINAL SINGLE DUCT VAV REHEAT 2,NODE 36,NODE 5,Air Nodes
 Component Set,17,ZONEHVAC:AIRDISTRIBUTIONUNIT,ADU AIR TERMINAL SINGLE DUCT VAV REHEAT 11,AIRTERMINAL:SINGLEDUCT:VAV:REHEAT,AIR TERMINAL SINGLE DUCT VAV REHEAT 11,NODE 63,NODE 61,Air Nodes
 Component Set,18,ZONEHVAC:AIRDISTRIBUTIONUNIT,ADU AIR TERMINAL SINGLE DUCT VAV REHEAT 9,AIRTERMINAL:SINGLEDUCT:VAV:REHEAT,AIR TERMINAL SINGLE DUCT VAV REHEAT 9,NODE 57,NODE 55,Air Nodes
 Component Set,19,ZONEHVAC:AIRDISTRIBUTIONUNIT,ADU AIR TERMINAL SINGLE DUCT VAV REHEAT 8,AIRTERMINAL:SINGLEDUCT:VAV:REHEAT,AIR TERMINAL SINGLE DUCT VAV REHEAT 8,NODE 54,NODE 52,Air Nodes
 Component Set,20,ZONEHVAC:AIRDISTRIBUTIONUNIT,ADU AIR TERMINAL SINGLE DUCT VAV REHEAT 10,AIRTERMINAL:SINGLEDUCT:VAV:REHEAT,AIR TERMINAL SINGLE DUCT VAV REHEAT 10,NODE 60,NODE 58,Air Nodes
 Component Set,21,ZONEHVAC:AIRDISTRIBUTIONUNIT,ADU AIR TERMINAL SINGLE DUCT VAV REHEAT 7,AIRTERMINAL:SINGLEDUCT:VAV:REHEAT,AIR TERMINAL SINGLE DUCT VAV REHEAT 7,NODE 51,NODE 49,Air Nodes
 Component Set,22,ZONEHVAC:AIRDISTRIBUTIONUNIT,ADU AIR TERMINAL SINGLE DUCT VAV REHEAT 16,AIRTERMINAL:SINGLEDUCT:VAV:REHEAT,AIR TERMINAL SINGLE DUCT VAV REHEAT 16,NODE 78,NODE 76,Air Nodes
 Component Set,23,ZONEHVAC:AIRDISTRIBUTIONUNIT,ADU AIR TERMINAL SINGLE DUCT VAV REHEAT 14,AIRTERMINAL:SINGLEDUCT:VAV:REHEAT,AIR TERMINAL SINGLE DUCT VAV REHEAT 14,NODE 72,NODE 70,Air Nodes
 Component Set,24,ZONEHVAC:AIRDISTRIBUTIONUNIT,ADU AIR TERMINAL SINGLE DUCT VAV REHEAT 13,AIRTERMINAL:SINGLEDUCT:VAV:REHEAT,AIR TERMINAL SINGLE DUCT VAV REHEAT 13,NODE 69,NODE 67,Air Nodes
 Component Set,25,ZONEHVAC:AIRDISTRIBUTIONUNIT,ADU AIR TERMINAL SINGLE DUCT VAV REHEAT 15,AIRTERMINAL:SINGLEDUCT:VAV:REHEAT,AIR TERMINAL SINGLE DUCT VAV REHEAT 15,NODE 75,NODE 73,Air Nodes
 Component Set,26,ZONEHVAC:AIRDISTRIBUTIONUNIT,ADU AIR TERMINAL SINGLE DUCT VAV REHEAT 12,AIRTERMINAL:SINGLEDUCT:VAV:REHEAT,AIR TERMINAL SINGLE DUCT VAV REHEAT 12,NODE 66,NODE 64,Air Nodes
 Component Set,27,AIRTERMINAL:SINGLEDUCT:VAV:REHEAT,AIR TERMINAL SINGLE DUCT VAV REHEAT 6,COIL:HEATING:ELECTRIC,COIL HEATING ELECTRIC 7,AIR TERMINAL SINGLE DUCT VAV REHEAT 6 DAMPER OUTLET,NODE 46,Air Nodes
 Component Set,28,AIRTERMINAL:SINGLEDUCT:VAV:REHEAT,AIR TERMINAL SINGLE DUCT VAV REHEAT 4,COIL:HEATING:ELECTRIC,COIL HEATING ELECTRIC 5,AIR TERMINAL SINGLE DUCT VAV REHEAT 4 DAMPER OUTLET,NODE 40,Air Nodes
 Component Set,29,AIRTERMINAL:SINGLEDUCT:VAV:REHEAT,AIR TERMINAL SINGLE DUCT VAV REHEAT 3,COIL:HEATING:ELECTRIC,COIL HEATING ELECTRIC 4,AIR TERMINAL SINGLE DUCT VAV REHEAT 3 DAMPER OUTLET,NODE 37,Air Nodes
 Component Set,30,AIRTERMINAL:SINGLEDUCT:VAV:REHEAT,AIR TERMINAL SINGLE DUCT VAV REHEAT 5,COIL:HEATING:ELECTRIC,COIL HEATING ELECTRIC 6,AIR TERMINAL SINGLE DUCT VAV REHEAT 5 DAMPER OUTLET,NODE 43,Air Nodes
 Component Set,31,AIRTERMINAL:SINGLEDUCT:VAV:REHEAT,AIR TERMINAL SINGLE DUCT VAV REHEAT 2,COIL:HEATING:ELECTRIC,COIL HEATING ELECTRIC 3,AIR TERMINAL SINGLE DUCT VAV REHEAT 2 DAMPER OUTLET,NODE 5,Air Nodes
 Component Set,32,AIRTERMINAL:SINGLEDUCT:VAV:REHEAT,AIR TERMINAL SINGLE DUCT VAV REHEAT 11,COIL:HEATING:ELECTRIC,COIL HEATING ELECTRIC 12,AIR TERMINAL SINGLE DUCT VAV REHEAT 11 DAMPER OUTLET,NODE 61,Air Nodes
 Component Set,33,AIRTERMINAL:SINGLEDUCT:VAV:REHEAT,AIR TERMINAL SINGLE DUCT VAV REHEAT 9,COIL:HEATING:ELECTRIC,COIL HEATING ELECTRIC 10,AIR TERMINAL SINGLE DUCT VAV REHEAT 9 DAMPER OUTLET,NODE 55,Air Nodes
 Component Set,34,AIRTERMINAL:SINGLEDUCT:VAV:REHEAT,AIR TERMINAL SINGLE DUCT VAV REHEAT 8,COIL:HEATING:ELECTRIC,COIL HEATING ELECTRIC 9,AIR TERMINAL SINGLE DUCT VAV REHEAT 8 DAMPER OUTLET,NODE 52,Air Nodes
 Component Set,35,AIRTERMINAL:SINGLEDUCT:VAV:REHEAT,AIR TERMINAL SINGLE DUCT VAV REHEAT 10,COIL:HEATING:ELECTRIC,COIL HEATING ELECTRIC 11,AIR TERMINAL SINGLE DUCT VAV REHEAT 10 DAMPER OUTLET,NODE 58,Air Nodes
 Component Set,36,AIRTERMINAL:SINGLEDUCT:VAV:REHEAT,AIR TERMINAL SINGLE DUCT VAV REHEAT 7,COIL:HEATING:ELECTRIC,COIL HEATING ELECTRIC 8,AIR TERMINAL SINGLE DUCT VAV REHEAT 7 DAMPER OUTLET,NODE 49,Air Nodes
 Component Set,37,AIRTERMINAL:SINGLEDUCT:VAV:REHEAT,AIR TERMINAL SINGLE DUCT VAV REHEAT 16,COIL:HEATING:ELECTRIC,COIL HEATING ELECTRIC 17,AIR TERMINAL SINGLE DUCT VAV REHEAT 16 DAMPER OUTLET,NODE 76,Air Nodes
 Component Set,38,AIRTERMINAL:SINGLEDUCT:VAV:REHEAT,AIR TERMINAL SINGLE DUCT VAV REHEAT 14,COIL:HEATING:ELECTRIC,COIL HEATING ELECTRIC 15,AIR TERMINAL SINGLE DUCT VAV REHEAT 14 DAMPER OUTLET,NODE 70,Air Nodes
 Component Set,39,AIRTERMINAL:SINGLEDUCT:VAV:REHEAT,AIR TERMINAL SINGLE DUCT VAV REHEAT 13,COIL:HEATING:ELECTRIC,COIL HEATING ELECTRIC 14,AIR TERMINAL SINGLE DUCT VAV REHEAT 13 DAMPER OUTLET,NODE 67,Air Nodes
 Component Set,40,AIRTERMINAL:SINGLEDUCT:VAV:REHEAT,AIR TERMINAL SINGLE DUCT VAV REHEAT 15,COIL:HEATING:ELECTRIC,COIL HEATING ELECTRIC 16,AIR TERMINAL SINGLE DUCT VAV REHEAT 15 DAMPER OUTLET,NODE 73,Air Nodes
 Component Set,41,AIRTERMINAL:SINGLEDUCT:VAV:REHEAT,AIR TERMINAL SINGLE DUCT VAV REHEAT 12,COIL:HEATING:ELECTRIC,COIL HEATING ELECTRIC 13,AIR TERMINAL SINGLE DUCT VAV REHEAT 12 DAMPER OUTLET,NODE 64,Air Nodes
 Component Set,42,AIRLOOPHVAC:OUTDOORAIRSYSTEM,AIR LOOP HVAC OUTDOOR AIR SYSTEM 1,OUTDOORAIR:MIXER,AIR LOOP HVAC OUTDOOR AIR SYSTEM 1 OUTDOOR AIR MIXER,NODE 6,NODE 8,Air Nodes
 Component Set,43,COILSYSTEM:COOLING:DX,COIL COOLING DX TWO SPEED 1 COILSYSTEM,COIL:COOLING:DX:TWOSPEED,COIL COOLING DX TWO SPEED 1,NODE 8,NODE 9,Air Nodes
! ===============================================================
! <# Plant Loops>,<Number of Plant Loops>
 #Plant Loops,1
! <Plant Loop>,<Plant Loop Name>,<Loop Type>,<Inlet Node Name>,<Outlet Node Name>,<Branch List>,<Connector List>
! <Plant Loop Connector>,<Connector Type>,<Connector Name>,<Loop Name>,<Loop Type>,<Number of Inlets/Outlets>
! <Plant Loop Connector Branches>,<Connector Node Count>,<Connector Type>,<Connector Name>,<Inlet Branch>,<Outlet Branch>,<Loop Name>,<Loop Type>
! <Plant Loop Connector Nodes>,<Connector Node Count>,<Connector Type>,<Connector Name>,<Inlet Node>,<Outlet Node>,<Loop Name>,<Loop Type>
! <Plant Loop Supply Connection>,<Plant Loop Name>,<Supply Side Outlet Node Name>,<Demand Side Inlet Node Name>
! <Plant Loop Return Connection>,<Plant Loop Name>,<Demand Side Outlet Node Name>,<Supply Side Inlet Node Name>
 Plant Loop,SWPLANT 465,Demand,NODE 15,NODE 16,SWPLANT 465 DEMAND BRANCHES,SWPLANT 465 DEMAND CONNECTOR LIST
   Plant Loop Connector,Splitter,SWPLANT 465 DEMAND SPLITTER,SWPLANT 465,Demand,2
     Plant Loop Connector Branches,1,Splitter,SWPLANT 465 DEMAND SPLITTER,SWPLANT 465 DEMAND INLET BRANCH,SWPLANT 465 DEMAND BRANCH 1,SWPLANT 465,Demand
     Plant Loop Connector Nodes,   1,Splitter,SWPLANT 465 DEMAND SPLITTER,SWPLANT 465 DEMAND INLET PIPE NODE,NODE 17,SWPLANT 465,Demand
     Plant Loop Connector Branches,2,Splitter,SWPLANT 465 DEMAND SPLITTER,SWPLANT 465 DEMAND INLET BRANCH,SWPLANT 465 DEMAND BYPASS BRANCH,SWPLANT 465,Demand
     Plant Loop Connector Nodes,   2,Splitter,SWPLANT 465 DEMAND SPLITTER,SWPLANT 465 DEMAND INLET PIPE NODE,SWPLANT 465 DEMAND BYPASS PIPE INLET NODE,SWPLANT 465,Demand
   Plant Loop Connector,Mixer,SWPLANT 465 DEMAND MIXER,SWPLANT 465,Demand,2
     Plant Loop Connector Branches,1,Mixer,SWPLANT 465 DEMAND MIXER,SWPLANT 465 DEMAND BRANCH 1,SWPLANT 465 DEMAND OUTLET BRANCH,SWPLANT 465,Demand
     Plant Loop Connector Nodes,   1,Mixer,SWPLANT 465 DEMAND MIXER,NODE 20,SWPLANT 465 DEMAND OUTLET PIPE NODE,SWPLANT 465,Demand
     Plant Loop Connector Branches,2,Mixer,SWPLANT 465 DEMAND MIXER,SWPLANT 465 DEMAND BYPASS BRANCH,SWPLANT 465 DEMAND OUTLET BRANCH,SWPLANT 465,Demand
     Plant Loop Connector Nodes,   2,Mixer,SWPLANT 465 DEMAND MIXER,SWPLANT 465 DEMAND BYPASS PIPE OUTLET NODE,SWPLANT 465 DEMAND OUTLET PIPE NODE,SWPLANT 465,Demand
 Plant Loop,SWPLANT 465,Supply,NODE 12,NODE 13,SWPLANT 465 SUPPLY BRANCHES,SWPLANT 465 SUPPLY CONNECTOR LIST
   Plant Loop Connector,Splitter,SWPLANT 465 SUPPLY SPLITTER,SWPLANT 465,Supply,1
     Plant Loop Connector Branches,1,Splitter,SWPLANT 465 SUPPLY SPLITTER,SWPLANT 465 SUPPLY INLET BRANCH,SWPLANT 465 SUPPLY BRANCH 1,SWPLANT 465,Supply
     Plant Loop Connector Nodes,   1,Splitter,SWPLANT 465 SUPPLY SPLITTER,NODE 18,NODE 14,SWPLANT 465,Supply
   Plant Loop Connector,Mixer,SWPLANT 465 SUPPLY MIXER,SWPLANT 465,Supply,1
     Plant Loop Connector Branches,1,Mixer,SWPLANT 465 SUPPLY MIXER,SWPLANT 465 SUPPLY BRANCH 1,SWPLANT 465 SUPPLY OUTLET BRANCH,SWPLANT 465,Supply
     Plant Loop Connector Nodes,   1,Mixer,SWPLANT 465 SUPPLY MIXER,NODE 19,SWPLANT 465 SUPPLY OUTLET PIPE NODE,SWPLANT 465,Supply
 Plant Loop Supply Connection,SWPLANT 465,NODE 13,NODE 15
 Plant Loop Return Connection,SWPLANT 465,NODE 16,NODE 12
! ===============================================================
! <# Condenser Loops>,<Number of Condenser Loops>
 #Condenser Loops,0
! <Condenser Loop>,<Condenser Loop Name>,<Loop Type>,<Inlet Node Name>,<Outlet Node Name>,<Branch List>,<Connector List>
! <Condenser Loop Connector>,<Connector Type>,<Connector Name>,<Loop Name>,<Loop Type>,<Number of Inlets/Outlets>
! <Condenser Loop Connector Branches>,<Connector Node Count>,<Connector Type>,<Connector Name>,<Inlet Branch>,<Outlet Branch>,<Loop Name>,<Loop Type>
! <Condenser Loop Connector Nodes>,<Connector Node Count>,<Connector Type>,<Connector Name>,<Inlet Node>,<Outlet Node>,<Loop Name>,<Loop Type>
! <Condenser Loop Supply Connection>,<Condenser Loop Name>,<Supply Side Outlet Node Name>,<Demand Side Inlet Node Name>
! <Condenser Loop Return Connection>,<Condenser Loop Name>,<Demand Side Outlet Node Name>,<Supply Side Inlet Node Name>
! ===============================================================
! <# Controlled Zones>,<Number of Controlled Zones>
 #Controlled Zones,15
! <Controlled Zone>,<Controlled Zone Name>,<Equip List Name>,<Control List Name>,<Zone Node Name>,<Return Air Node Name>,<# Inlet Nodes>,<# Exhaust Nodes>
! <Controlled Zone Inlet>,<Inlet Node Count>,<Controlled Zone Name>,<Supply Air Inlet Node Name>,<SD Sys:Cooling/Heating [DD:Cooling] Inlet Node Name>,<DD Sys:Heating Inlet Node Name>
! <Controlled Zone Exhaust>,<Exhaust Node Count>,<Controlled Zone Name>,<Exhaust Air Node Name>
 Controlled Zone,997_OFFICE_1_CORE,997_OFFICE_1_CORE EQUIPMENT LIST,,NODE 25,NODE 47,1,0
   Controlled Zone Inlet,1,997_OFFICE_1_CORE,NODE 46,NODE 48,N/A
 Controlled Zone,997_OFFICE_1_EAST PERIMETER,997_OFFICE_1_EAST PERIMETER EQUIPMENT LIST,,NODE 23,NODE 41,1,0
   Controlled Zone Inlet,1,997_OFFICE_1_EAST PERIMETER,NODE 40,NODE 42,N/A
 Controlled Zone,997_OFFICE_1_NORTH PERIMETER,997_OFFICE_1_NORTH PERIMETER EQUIPMENT LIST,,NODE 22,NODE 38,1,0
   Controlled Zone Inlet,1,997_OFFICE_1_NORTH PERIMETER,NODE 37,NODE 39,N/A
 Controlled Zone,997_OFFICE_1_SOUTH PERIMETER,997_OFFICE_1_SOUTH PERIMETER EQUIPMENT LIST,,NODE 24,NODE 44,1,0
   Controlled Zone Inlet,1,997_OFFICE_1_SOUTH PERIMETER,NODE 43,NODE 45,N/A
 Controlled Zone,997_OFFICE_1_WEST PERIMETER,997_OFFICE_1_WEST PERIMETER EQUIPMENT LIST,,NODE 21,NODE 11,1,0
   Controlled Zone Inlet,1,997_OFFICE_1_WEST PERIMETER,NODE 5,NODE 36,N/A
 Controlled Zone,997_OFFICE_2_CORE,997_OFFICE_2_CORE EQUIPMENT LIST,,NODE 30,NODE 62,1,0
   Controlled Zone Inlet,1,997_OFFICE_2_CORE,NODE 61,NODE 63,N/A
 Controlled Zone,997_OFFICE_2_EAST PERIMETER,997_OFFICE_2_EAST PERIMETER EQUIPMENT LIST,,NODE 28,NODE 56,1,0
   Controlled Zone Inlet,1,997_OFFICE_2_EAST PERIMETER,NODE 55,NODE 57,N/A
 Controlled Zone,997_OFFICE_2_NORTH PERIMETER,997_OFFICE_2_NORTH PERIMETER EQUIPMENT LIST,,NODE 27,NODE 53,1,0
   Controlled Zone Inlet,1,997_OFFICE_2_NORTH PERIMETER,NODE 52,NODE 54,N/A
 Controlled Zone,997_OFFICE_2_SOUTH PERIMETER,997_OFFICE_2_SOUTH PERIMETER EQUIPMENT LIST,,NODE 29,NODE 59,1,0
   Controlled Zone Inlet,1,997_OFFICE_2_SOUTH PERIMETER,NODE 58,NODE 60,N/A
 Controlled Zone,997_OFFICE_2_WEST PERIMETER,997_OFFICE_2_WEST PERIMETER EQUIPMENT LIST,,NODE 26,NODE 50,1,0
   Controlled Zone Inlet,1,997_OFFICE_2_WEST PERIMETER,NODE 49,NODE 51,N/A
 Controlled Zone,997_OFFICE_3_CORE,997_OFFICE_3_CORE EQUIPMENT LIST,,NODE 35,NODE 77,1,0
   Controlled Zone Inlet,1,997_OFFICE_3_CORE,NODE 76,NODE 78,N/A
 Controlled Zone,997_OFFICE_3_EAST PERIMETER,997_OFFICE_3_EAST PERIMETER EQUIPMENT LIST,,NODE 33,NODE 71,1,0
   Controlled Zone Inlet,1,997_OFFICE_3_EAST PERIMETER,NODE 70,NODE 72,N/A
 Controlled Zone,997_OFFICE_3_NORTH PERIMETER,997_OFFICE_3_NORTH PERIMETER EQUIPMENT LIST,,NODE 32,NODE 68,1,0
   Controlled Zone Inlet,1,997_OFFICE_3_NORTH PERIMETER,NODE 67,NODE 69,N/A
 Controlled Zone,997_OFFICE_3_SOUTH PERIMETER,997_OFFICE_3_SOUTH PERIMETER EQUIPMENT LIST,,NODE 34,NODE 74,1,0
   Controlled Zone Inlet,1,997_OFFICE_3_SOUTH PERIMETER,NODE 73,NODE 75,N/A
 Controlled Zone,997_OFFICE_3_WEST PERIMETER,997_OFFICE_3_WEST PERIMETER EQUIPMENT LIST,,NODE 31,NODE 65,1,0
   Controlled Zone Inlet,1,997_OFFICE_3_WEST PERIMETER,NODE 64,NODE 66,N/A
! ===============================================================
! <#Zone Equipment Lists>,<Number of Zone Equipment Lists>
 #Zone Equipment Lists,15
! <Zone Equipment List>,<Zone Equipment List Count>,<Zone Equipment List Name>,<Zone Name>,<Number of Components>
! <Zone Equipment Component>,<Component Count>,<Component Type>,<Component Name>,<Zone Name>,<Heating Priority>,<Cooling Priority>
 Zone Equipment List,1,997_OFFICE_1_CORE EQUIPMENT LIST,997_OFFICE_1_CORE,1
   Zone Equipment Component,1,ZONEHVAC:AIRDISTRIBUTIONUNIT,ADU AIR TERMINAL SINGLE DUCT VAV REHEAT 6,997_OFFICE_1_CORE,1,1
 Zone Equipment List,2,997_OFFICE_1_EAST PERIMETER EQUIPMENT LIST,997_OFFICE_1_EAST PERIMETER,1
   Zone Equipment Component,1,ZONEHVAC:AIRDISTRIBUTIONUNIT,ADU AIR TERMINAL SINGLE DUCT VAV REHEAT 4,997_OFFICE_1_EAST PERIMETER,1,1
 Zone Equipment List,3,997_OFFICE_1_NORTH PERIMETER EQUIPMENT LIST,997_OFFICE_1_NORTH PERIMETER,1
   Zone Equipment Component,1,ZONEHVAC:AIRDISTRIBUTIONUNIT,ADU AIR TERMINAL SINGLE DUCT VAV REHEAT 3,997_OFFICE_1_NORTH PERIMETER,1,1
 Zone Equipment List,4,997_OFFICE_1_SOUTH PERIMETER EQUIPMENT LIST,997_OFFICE_1_SOUTH PERIMETER,1
   Zone Equipment Component,1,ZONEHVAC:AIRDISTRIBUTIONUNIT,ADU AIR TERMINAL SINGLE DUCT VAV REHEAT 5,997_OFFICE_1_SOUTH PERIMETER,1,1
 Zone Equipment List,5,997_OFFICE_1_WEST PERIMETER EQUIPMENT LIST,997_OFFICE_1_WEST PERIMETER,1
   Zone Equipment Component,1,ZONEHVAC:AIRDISTRIBUTIONUNIT,ADU AIR TERMINAL SINGLE DUCT VAV REHEAT 2,997_OFFICE_1_WEST PERIMETER,1,1
 Zone Equipment List,6,997_OFFICE_2_CORE EQUIPMENT LIST,997_OFFICE_2_CORE,1
   Zone Equipment Component,1,ZONEHVAC:AIRDISTRIBUTIONUNIT,ADU AIR TERMINAL SINGLE DUCT VAV REHEAT 11,997_OFFICE_2_CORE,1,1
 Zone Equipment List,7,997_OFFICE_2_EAST PERIMETER EQUIPMENT LIST,997_OFFICE_2_EAST PERIMETER,1
   Zone Equipment Component,1,ZONEHVAC:AIRDISTRIBUTIONUNIT,ADU AIR TERMINAL SINGLE DUCT VAV REHEAT 9,997_OFFICE_2_EAST PERIMETER,1,1
 Zone Equipment List,8,997_OFFICE_2_NORTH PERIMETER EQUIPMENT LIST,997_OFFICE_2_NORTH PERIMETER,1
   Zone Equipment Component,1,ZONEHVAC:AIRDISTRIBUTIONUNIT,ADU AIR TERMINAL SINGLE DUCT VAV REHEAT 8,997_OFFICE_2_NORTH PERIMETER,1,1
 Zone Equipment List,9,997_OFFICE_2_SOUTH PERIMETER EQUIPMENT LIST,997_OFFICE_2_SOUTH PERIMETER,1
   Zone Equipment Component,1,ZONEHVAC:AIRDISTRIBUTIONUNIT,ADU AIR TERMINAL SINGLE DUCT VAV REHEAT 10,997_OFFICE_2_SOUTH PERIMETER,1,1
 Zone Equipment List,10,997_OFFICE_2_WEST PERIMETER EQUIPMENT LIST,997_OFFICE_2_WEST PERIMETER,1
   Zone Equipment Component,1,ZONEHVAC:AIRDISTRIBUTIONUNIT,ADU AIR TERMINAL SINGLE DUCT VAV REHEAT 7,997_OFFICE_2_WEST PERIMETER,1,1
 Zone Equipment List,11,997_OFFICE_3_CORE EQUIPMENT LIST,997_OFFICE_3_CORE,1
   Zone Equipment Component,1,ZONEHVAC:AIRDISTRIBUTIONUNIT,ADU AIR TERMINAL SINGLE DUCT VAV REHEAT 16,997_OFFICE_3_CORE,1,1
 Zone Equipment List,12,997_OFFICE_3_EAST PERIMETER EQUIPMENT LIST,997_OFFICE_3_EAST PERIMETER,1
   Zone Equipment Component,1,ZONEHVAC:AIRDISTRIBUTIONUNIT,ADU AIR TERMINAL SINGLE DUCT VAV REHEAT 14,997_OFFICE_3_EAST PERIMETER,1,1
 Zone Equipment List,13,997_OFFICE_3_NORTH PERIMETER EQUIPMENT LIST,997_OFFICE_3_NORTH PERIMETER,1
   Zone Equipment Component,1,ZONEHVAC:AIRDISTRIBUTIONUNIT,ADU AIR TERMINAL SINGLE DUCT VAV REHEAT 13,997_OFFICE_3_NORTH PERIMETER,1,1
 Zone Equipment List,14,997_OFFICE_3_SOUTH PERIMETER EQUIPMENT LIST,997_OFFICE_3_SOUTH PERIMETER,1
   Zone Equipment Component,1,ZONEHVAC:AIRDISTRIBUTIONUNIT,ADU AIR TERMINAL SINGLE DUCT VAV REHEAT 15,997_OFFICE_3_SOUTH PERIMETER,1,1
 Zone Equipment List,15,997_OFFICE_3_WEST PERIMETER EQUIPMENT LIST,997_OFFICE_3_WEST PERIMETER,1
   Zone Equipment Component,1,ZONEHVAC:AIRDISTRIBUTIONUNIT,ADU AIR TERMINAL SINGLE DUCT VAV REHEAT 12,997_OFFICE_3_WEST PERIMETER,1,1
! ===============================================================
! <#AirLoopHVACs>,<Number of AirLoopHVACs>
 #AirLoopHVACs,1
! <AirLoopHVAC>,<Air Loop Name>,<# Return Nodes>,<# Supply Nodes>,<# Zones Cooled>,<# Zones Heated>,<Outdoor Air Used>
! <AirLoop Return Connections>,<Connection Count>,<AirLoopHVAC Name>,<Zn Eqp Return Node #>,<Zn Eqp Return Node Name>,<AirLoop Return Node #>,<Air Loop Return Node Name>
! <AirLoop Supply Connections>,<Connection Count>,<AirLoopHVAC Name>,<Zn Eqp Supply Node #>,<Zn Eqp Supply Node Name>,<AirLoop Supply Node #>,<Air Loop Supply Node Name>
! <Cooled Zone Info>,<Cooled Zone Count>,<Cooled Zone Name>,<Cooled Zone Inlet Node #>,<Cooled Zone Inlet Node Name>,<AirLoopHVAC Name>
! <Heated Zone Info>,<Heated Zone Count>,<Heated Zone Name>,<Heated Zone Inlet Node #>,<Heated Zone Inlet Node Name>,<AirLoopHVAC Name>
! <Outdoor Air Connections>,<OA Inlet Node #>,<OA Return Air Inlet Node Name>,<OA Outlet Node #>,<OA Mixed Air Outlet Node Name>,<AirLoopHVAC Name>
! <AirLoopHVAC Connector>,<Connector Type>,<Connector Name>,<Loop Name>,<Loop Type>,<Number of Inlets/Outlets>
! <AirLoopHVAC Connector Branches>,<Connector Node Count>,<Connector Type>,<Connector Name>,<Inlet Branch>,<Outlet Branch>,<Loop Name>,<Loop Type>
! <AirLoopHVAC Connector Nodes>,<Connector Node Count>,<Connector Type>,<Connector Name>,<Inlet Node>,<Outlet Node>,<Loop Name>,<Loop Type>
 AirLoopHVAC,AIRLOOP 493,1,1,15,0,Yes
   AirLoop Return Connections,1,AIRLOOP 493,67,NODE 4,18,NODE 1
   AirLoop Supply Connections,1,AIRLOOP 493,17,NODE 3,16,NODE 2
   Cooled Zone Info,1,997_OFFICE_1_WEST PERIMETER,5,NODE 5,AIRLOOP 493
   Cooled Zone Info,2,997_OFFICE_1_NORTH PERIMETER,3,NODE 37,AIRLOOP 493
   Cooled Zone Info,3,997_OFFICE_1_EAST PERIMETER,2,NODE 40,AIRLOOP 493
   Cooled Zone Info,4,997_OFFICE_1_SOUTH PERIMETER,4,NODE 43,AIRLOOP 493
   Cooled Zone Info,5,997_OFFICE_1_CORE,1,NODE 46,AIRLOOP 493
   Cooled Zone Info,6,997_OFFICE_2_WEST PERIMETER,10,NODE 49,AIRLOOP 493
   Cooled Zone Info,7,997_OFFICE_2_NORTH PERIMETER,8,NODE 52,AIRLOOP 493
   Cooled Zone Info,8,997_OFFICE_2_EAST PERIMETER,7,NODE 55,AIRLOOP 493
   Cooled Zone Info,9,997_OFFICE_2_SOUTH PERIMETER,9,NODE 58,AIRLOOP 493
   Cooled Zone Info,10,997_OFFICE_2_CORE,6,NODE 61,AIRLOOP 493
   Cooled Zone Info,11,997_OFFICE_3_WEST PERIMETER,15,NODE 64,AIRLOOP 493
   Cooled Zone Info,12,997_OFFICE_3_NORTH PERIMETER,13,NODE 67,AIRLOOP 493
   Cooled Zone Info,13,997_OFFICE_3_EAST PERIMETER,12,NODE 70,AIRLOOP 493
   Cooled Zone Info,14,997_OFFICE_3_SOUTH PERIMETER,14,NODE 73,AIRLOOP 493
   Cooled Zone Info,15,997_OFFICE_3_CORE,11,NODE 76,AIRLOOP 493
   Outdoor Air Connections,18,NODE 1,19,NODE 8,AIRLOOP 493
! ===============================================================
! <#Parent Node Connections>,<Number of Parent Node Connections>
 #Parent Node Connections,63
! <Parent Node Connection>,<Node Name>,<Node ObjectType>,<Node ObjectName>,<Node ConnectionType>,<Node FluidStream>
 Parent Node Connection,NODE 1,BRANCH,AIRLOOP 493 MAIN BRANCH,Inlet,1
 Parent Node Connection,NODE 8,BRANCH,AIRLOOP 493 MAIN BRANCH,Internal,1
 Parent Node Connection,NODE 9,BRANCH,AIRLOOP 493 MAIN BRANCH,Internal,1
 Parent Node Connection,NODE 10,BRANCH,AIRLOOP 493 MAIN BRANCH,Internal,1
 Parent Node Connection,NODE 2,BRANCH,AIRLOOP 493 MAIN BRANCH,Outlet,1
 Parent Node Connection,NODE 12,BRANCH,SWPLANT 465 SUPPLY INLET BRANCH,Inlet,1
 Parent Node Connection,NODE 18,BRANCH,SWPLANT 465 SUPPLY INLET BRANCH,Outlet,1
 Parent Node Connection,NODE 14,BRANCH,SWPLANT 465 SUPPLY BRANCH 1,Inlet,1
 Parent Node Connection,NODE 19,BRANCH,SWPLANT 465 SUPPLY BRANCH 1,Outlet,1
 Parent Node Connection,SWPLANT 465 SUPPLY OUTLET PIPE NODE,BRANCH,SWPLANT 465 SUPPLY OUTLET BRANCH,Inlet,1
 Parent Node Connection,NODE 13,BRANCH,SWPLANT 465 SUPPLY OUTLET BRANCH,Outlet,1
 Parent Node Connection,NODE 15,BRANCH,SWPLANT 465 DEMAND INLET BRANCH,Inlet,1
 Parent Node Connection,SWPLANT 465 DEMAND INLET PIPE NODE,BRANCH,SWPLANT 465 DEMAND INLET BRANCH,Outlet,1
 Parent Node Connection,NODE 17,BRANCH,SWPLANT 465 DEMAND BRANCH 1,Inlet,1
 Parent Node Connection,NODE 20,BRANCH,SWPLANT 465 DEMAND BRANCH 1,Outlet,1
 Parent Node Connection,SWPLANT 465 DEMAND BYPASS PIPE INLET NODE,BRANCH,SWPLANT 465 DEMAND BYPASS BRANCH,Inlet,1
 Parent Node Connection,SWPLANT 465 DEMAND BYPASS PIPE OUTLET NODE,BRANCH,SWPLANT 465 DEMAND BYPASS BRANCH,Outlet,1
 Parent Node Connection,SWPLANT 465 DEMAND OUTLET PIPE NODE,BRANCH,SWPLANT 465 DEMAND OUTLET BRANCH,Inlet,1
 Parent Node Connection,NODE 16,BRANCH,SWPLANT 465 DEMAND OUTLET BRANCH,Outlet,1
 Parent Node Connection,NODE 12,PLANTLOOP,SWPLANT 465,Inlet,1
 Parent Node Connection,NODE 13,PLANTLOOP,SWPLANT 465,Outlet,1
 Parent Node Connection,NODE 15,PLANTLOOP,SWPLANT 465,Inlet,1
 Parent Node Connection,NODE 16,PLANTLOOP,SWPLANT 465,Outlet,1
 Parent Node Connection,NODE 13,PLANTLOOP,SWPLANT 465,Sensor,1
 Parent Node Connection,NODE 3,AIRLOOPHVAC:SUPPLYPATH,AIRLOOP 493 NODE 3 SUPPLY PATH,Inlet,1
 Parent Node Connection,NODE 4,AIRLOOPHVAC:RETURNPATH,AIRLOOP 493 RETURN PATH,Outlet,1
 Parent Node Connection,NODE 46,ZONEHVAC:AIRDISTRIBUTIONUNIT,ADU AIR TERMINAL SINGLE DUCT VAV REHEAT 6,Outlet,1
 Parent Node Connection,NODE 40,ZONEHVAC:AIRDISTRIBUTIONUNIT,ADU AIR TERMINAL SINGLE DUCT VAV REHEAT 4,Outlet,1
 Parent Node Connection,NODE 37,ZONEHVAC:AIRDISTRIBUTIONUNIT,ADU AIR TERMINAL SINGLE DUCT VAV REHEAT 3,Outlet,1
 Parent Node Connection,NODE 43,ZONEHVAC:AIRDISTRIBUTIONUNIT,ADU AIR TERMINAL SINGLE DUCT VAV REHEAT 5,Outlet,1
 Parent Node Connection,NODE 5,ZONEHVAC:AIRDISTRIBUTIONUNIT,ADU AIR TERMINAL SINGLE DUCT VAV REHEAT 2,Outlet,1
 Parent Node Connection,NODE 61,ZONEHVAC:AIRDISTRIBUTIONUNIT,ADU AIR TERMINAL SINGLE DUCT VAV REHEAT 11,Outlet,1
 Parent Node Connection,NODE 55,ZONEHVAC:AIRDISTRIBUTIONUNIT,ADU AIR TERMINAL SINGLE DUCT VAV REHEAT 9,Outlet,1
 Parent Node Connection,NODE 52,ZONEHVAC:AIRDISTRIBUTIONUNIT,ADU AIR TERMINAL SINGLE DUCT VAV REHEAT 8,Outlet,1
 Parent Node Connection,NODE 58,ZONEHVAC:AIRDISTRIBUTIONUNIT,ADU AIR TERMINAL SINGLE DUCT VAV REHEAT 10,Outlet,1
 Parent Node Connection,NODE 49,ZONEHVAC:AIRDISTRIBUTIONUNIT,ADU AIR TERMINAL SINGLE DUCT VAV REHEAT 7,Outlet,1
 Parent Node Connection,NODE 76,ZONEHVAC:AIRDISTRIBUTIONUNIT,ADU AIR TERMINAL SINGLE DUCT VAV REHEAT 16,Outlet,1
 Parent Node Connection,NODE 70,ZONEHVAC:AIRDISTRIBUTIONUNIT,ADU AIR TERMINAL SINGLE DUCT VAV REHEAT 14,Outlet,1
 Parent Node Connection,NODE 67,ZONEHVAC:AIRDISTRIBUTIONUNIT,ADU AIR TERMINAL SINGLE DUCT VAV REHEAT 13,Outlet,1
 Parent Node Connection,NODE 73,ZONEHVAC:AIRDISTRIBUTIONUNIT,ADU AIR TERMINAL SINGLE DUCT VAV REHEAT 15,Outlet,1
 Parent Node Connection,NODE 64,ZONEHVAC:AIRDISTRIBUTIONUNIT,ADU AIR TERMINAL SINGLE DUCT VAV REHEAT 12,Outlet,1
 Parent Node Connection,NODE 46,AIRTERMINAL:SINGLEDUCT:VAV:REHEAT,AIR TERMINAL SINGLE DUCT VAV REHEAT 6,Outlet,1
 Parent Node Connection,NODE 40,AIRTERMINAL:SINGLEDUCT:VAV:REHEAT,AIR TERMINAL SINGLE DUCT VAV REHEAT 4,Outlet,1
 Parent Node Connection,NODE 37,AIRTERMINAL:SINGLEDUCT:VAV:REHEAT,AIR TERMINAL SINGLE DUCT VAV REHEAT 3,Outlet,1
 Parent Node Connection,NODE 43,AIRTERMINAL:SINGLEDUCT:VAV:REHEAT,AIR TERMINAL SINGLE DUCT VAV REHEAT 5,Outlet,1
 Parent Node Connection,NODE 5,AIRTERMINAL:SINGLEDUCT:VAV:REHEAT,AIR TERMINAL SINGLE DUCT VAV REHEAT 2,Outlet,1
 Parent Node Connection,NODE 61,AIRTERMINAL:SINGLEDUCT:VAV:REHEAT,AIR TERMINAL SINGLE DUCT VAV REHEAT 11,Outlet,1
 Parent Node Connection,NODE 55,AIRTERMINAL:SINGLEDUCT:VAV:REHEAT,AIR TERMINAL SINGLE DUCT VAV REHEAT 9,Outlet,1
 Parent Node Connection,NODE 52,AIRTERMINAL:SINGLEDUCT:VAV:REHEAT,AIR TERMINAL SINGLE DUCT VAV REHEAT 8,Outlet,1
 Parent Node Connection,NODE 58,AIRTERMINAL:SINGLEDUCT:VAV:REHEAT,AIR TERMINAL SINGLE DUCT VAV REHEAT 10,Outlet,1
 Parent Node Connection,NODE 49,AIRTERMINAL:SINGLEDUCT:VAV:REHEAT,AIR TERMINAL SINGLE DUCT VAV REHEAT 7,Outlet,1
 Parent Node Connection,NODE 76,AIRTERMINAL:SINGLEDUCT:VAV:REHEAT,AIR TERMINAL SINGLE DUCT VAV REHEAT 16,Outlet,1
 Parent Node Connection,NODE 70,AIRTERMINAL:SINGLEDUCT:VAV:REHEAT,AIR TERMINAL SINGLE DUCT VAV REHEAT 14,Outlet,1
 Parent Node Connection,NODE 67,AIRTERMINAL:SINGLEDUCT:VAV:REHEAT,AIR TERMINAL SINGLE DUCT VAV REHEAT 13,Outlet,1
 Parent Node Connection,NODE 73,AIRTERMINAL:SINGLEDUCT:VAV:REHEAT,AIR TERMINAL SINGLE DUCT VAV REHEAT 15,Outlet,1
 Parent Node Connection,NODE 64,AIRTERMINAL:SINGLEDUCT:VAV:REHEAT,AIR TERMINAL SINGLE DUCT VAV REHEAT 12,Outlet,1
 Parent Node Connection,NODE 1,AIRLOOPHVAC,AIRLOOP 493,Inlet,1
 Parent Node Connection,NODE 4,AIRLOOPHVAC,AIRLOOP 493,Outlet,1
 Parent Node Connection,NODE 3,AIRLOOPHVAC,AIRLOOP 493,Inlet,1
 Parent Node Connection,NODE 2,AIRLOOPHVAC,AIRLOOP 493,Outlet,1
 Parent Node Connection,NODE 8,COILSYSTEM:COOLING:DX,COIL COOLING DX TWO SPEED 1 COILSYSTEM,Inlet,1
 Parent Node Connection,NODE 9,COILSYSTEM:COOLING:DX,COIL COOLING DX TWO SPEED 1 COILSYSTEM,Outlet,1
 Parent Node Connection,NODE 9,COILSYSTEM:COOLING:DX,COIL COOLING DX TWO SPEED 1 COILSYSTEM,Sensor,1
! ===============================================================
! <#Non-Parent Node Connections>,<Number of Non-Parent Node Connections>
 #Non-Parent Node Connections,197
! <Non-Parent Node Connection>,<Node Name>,<Node ObjectType>,<Node ObjectName>,<Node ConnectionType>,<Node FluidStream>
 Non-Parent Node Connection,NODE 14,WATERHEATER:MIXED,WATER HEATER MIXED 1,Inlet,1
 Non-Parent Node Connection,NODE 19,WATERHEATER:MIXED,WATER HEATER MIXED 1,Outlet,1
 Non-Parent Node Connection,NODE 6,OUTDOORAIR:NODELIST,OutdoorAir:NodeList,OutdoorAir,1
 Non-Parent Node Connection,NODE 2,SETPOINTMANAGER:SCHEDULED,SETPOINT MANAGER SCHEDULED 1,Setpoint,1
 Non-Parent Node Connection,NODE 13,SETPOINTMANAGER:SCHEDULED,SETPOINT MANAGER SCHEDULED 2,Setpoint,1
 Non-Parent Node Connection,NODE 2,SETPOINTMANAGER:MIXEDAIR,SETPOINT MANAGER MIXED AIR 1,Sensor,1
 Non-Parent Node Connection,NODE 10,SETPOINTMANAGER:MIXEDAIR,SETPOINT MANAGER MIXED AIR 1,Sensor,1
 Non-Parent Node Connection,NODE 8,SETPOINTMANAGER:MIXEDAIR,SETPOINT MANAGER MIXED AIR 1,Setpoint,1
 Non-Parent Node Connection,NODE 2,SETPOINTMANAGER:MIXEDAIR,NODE 8 OS DEFAULT SPM,Sensor,1
 Non-Parent Node Connection,NODE 10,SETPOINTMANAGER:MIXEDAIR,NODE 8 OS DEFAULT SPM,Sensor,1
 Non-Parent Node Connection,NODE 8,SETPOINTMANAGER:MIXEDAIR,NODE 8 OS DEFAULT SPM,Setpoint,1
 Non-Parent Node Connection,NODE 2,SETPOINTMANAGER:MIXEDAIR,NODE 9 OS DEFAULT SPM,Sensor,1
 Non-Parent Node Connection,NODE 10,SETPOINTMANAGER:MIXEDAIR,NODE 9 OS DEFAULT SPM,Sensor,1
 Non-Parent Node Connection,NODE 9,SETPOINTMANAGER:MIXEDAIR,NODE 9 OS DEFAULT SPM,Setpoint,1
 Non-Parent Node Connection,NODE 2,SETPOINTMANAGER:MIXEDAIR,SETPOINT MANAGER MIXED AIR 2,Sensor,1
 Non-Parent Node Connection,NODE 10,SETPOINTMANAGER:MIXEDAIR,SETPOINT MANAGER MIXED AIR 2,Sensor,1
 Non-Parent Node Connection,NODE 9,SETPOINTMANAGER:MIXEDAIR,SETPOINT MANAGER MIXED AIR 2,Setpoint,1
 Non-Parent Node Connection,NODE 2,SETPOINTMANAGER:MIXEDAIR,NODE 10 OS DEFAULT SPM,Sensor,1
 Non-Parent Node Connection,NODE 10,SETPOINTMANAGER:MIXEDAIR,NODE 10 OS DEFAULT SPM,Sensor,1
 Non-Parent Node Connection,NODE 10,SETPOINTMANAGER:MIXEDAIR,NODE 10 OS DEFAULT SPM,Setpoint,1
 Non-Parent Node Connection,NODE 2,SETPOINTMANAGER:MIXEDAIR,SETPOINT MANAGER MIXED AIR 3,Sensor,1
 Non-Parent Node Connection,NODE 10,SETPOINTMANAGER:MIXEDAIR,SETPOINT MANAGER MIXED AIR 3,Sensor,1
 Non-Parent Node Connection,NODE 10,SETPOINTMANAGER:MIXEDAIR,SETPOINT MANAGER MIXED AIR 3,Setpoint,1
 Non-Parent Node Connection,SWPLANT 465 SUPPLY OUTLET PIPE NODE,PIPE:ADIABATIC,SWPLANT 465 SUPPLY OUTLET PIPE,Inlet,1
 Non-Parent Node Connection,NODE 13,PIPE:ADIABATIC,SWPLANT 465 SUPPLY OUTLET PIPE,Outlet,1
 Non-Parent Node Connection,NODE 15,PIPE:ADIABATIC,SWPLANT 465 DEMAND INLET PIPE,Inlet,1
 Non-Parent Node Connection,SWPLANT 465 DEMAND INLET PIPE NODE,PIPE:ADIABATIC,SWPLANT 465 DEMAND INLET PIPE,Outlet,1
 Non-Parent Node Connection,SWPLANT 465 DEMAND BYPASS PIPE INLET NODE,PIPE:ADIABATIC,SWPLANT 465 DEMAND BYPASS PIPE,Inlet,1
 Non-Parent Node Connection,SWPLANT 465 DEMAND BYPASS PIPE OUTLET NODE,PIPE:ADIABATIC,SWPLANT 465 DEMAND BYPASS PIPE,Outlet,1
 Non-Parent Node Connection,SWPLANT 465 DEMAND OUTLET PIPE NODE,PIPE:ADIABATIC,SWPLANT 465 DEMAND OUTLET PIPE,Inlet,1
 Non-Parent Node Connection,NODE 16,PIPE:ADIABATIC,SWPLANT 465 DEMAND OUTLET PIPE,Outlet,1
 Non-Parent Node Connection,SWPLANT 465 DEMAND INLET PIPE NODE,CONNECTOR:SPLITTER,SWPLANT 465 DEMAND SPLITTER,Inlet,1
 Non-Parent Node Connection,NODE 17,CONNECTOR:SPLITTER,SWPLANT 465 DEMAND SPLITTER,Outlet,1
 Non-Parent Node Connection,SWPLANT 465 DEMAND BYPASS PIPE INLET NODE,CONNECTOR:SPLITTER,SWPLANT 465 DEMAND SPLITTER,Outlet,1
 Non-Parent Node Connection,SWPLANT 465 DEMAND OUTLET PIPE NODE,CONNECTOR:MIXER,SWPLANT 465 DEMAND MIXER,Outlet,1
 Non-Parent Node Connection,NODE 20,CONNECTOR:MIXER,SWPLANT 465 DEMAND MIXER,Inlet,1
 Non-Parent Node Connection,SWPLANT 465 DEMAND BYPASS PIPE OUTLET NODE,CONNECTOR:MIXER,SWPLANT 465 DEMAND MIXER,Inlet,1
 Non-Parent Node Connection,NODE 18,CONNECTOR:SPLITTER,SWPLANT 465 SUPPLY SPLITTER,Inlet,1
 Non-Parent Node Connection,NODE 14,CONNECTOR:SPLITTER,SWPLANT 465 SUPPLY SPLITTER,Outlet,1
 Non-Parent Node Connection,SWPLANT 465 SUPPLY OUTLET PIPE NODE,CONNECTOR:MIXER,SWPLANT 465 SUPPLY MIXER,Outlet,1
 Non-Parent Node Connection,NODE 19,CONNECTOR:MIXER,SWPLANT 465 SUPPLY MIXER,Inlet,1
 Non-Parent Node Connection,NODE 25,ZONEHVAC:EQUIPMENTCONNECTIONS,997_OFFICE_1_CORE,ZoneNode,1
 Non-Parent Node Connection,NODE 47,ZONEHVAC:EQUIPMENTCONNECTIONS,997_OFFICE_1_CORE,ZoneReturn,1
 Non-Parent Node Connection,NODE 46,ZONEHVAC:EQUIPMENTCONNECTIONS,997_OFFICE_1_CORE,ZoneInlet,1
 Non-Parent Node Connection,NODE 23,ZONEHVAC:EQUIPMENTCONNECTIONS,997_OFFICE_1_EAST PERIMETER,ZoneNode,1
 Non-Parent Node Connection,NODE 41,ZONEHVAC:EQUIPMENTCONNECTIONS,997_OFFICE_1_EAST PERIMETER,ZoneReturn,1
 Non-Parent Node Connection,NODE 40,ZONEHVAC:EQUIPMENTCONNECTIONS,997_OFFICE_1_EAST PERIMETER,ZoneInlet,1
 Non-Parent Node Connection,NODE 22,ZONEHVAC:EQUIPMENTCONNECTIONS,997_OFFICE_1_NORTH PERIMETER,ZoneNode,1
 Non-Parent Node Connection,NODE 38,ZONEHVAC:EQUIPMENTCONNECTIONS,997_OFFICE_1_NORTH PERIMETER,ZoneReturn,1
 Non-Parent Node Connection,NODE 37,ZONEHVAC:EQUIPMENTCONNECTIONS,997_OFFICE_1_NORTH PERIMETER,ZoneInlet,1
 Non-Parent Node Connection,NODE 24,ZONEHVAC:EQUIPMENTCONNECTIONS,997_OFFICE_1_SOUTH PERIMETER,ZoneNode,1
 Non-Parent Node Connection,NODE 44,ZONEHVAC:EQUIPMENTCONNECTIONS,997_OFFICE_1_SOUTH PERIMETER,ZoneReturn,1
 Non-Parent Node Connection,NODE 43,ZONEHVAC:EQUIPMENTCONNECTIONS,997_OFFICE_1_SOUTH PERIMETER,ZoneInlet,1
 Non-Parent Node Connection,NODE 21,ZONEHVAC:EQUIPMENTCONNECTIONS,997_OFFICE_1_WEST PERIMETER,ZoneNode,1
 Non-Parent Node Connection,NODE 11,ZONEHVAC:EQUIPMENTCONNECTIONS,997_OFFICE_1_WEST PERIMETER,ZoneReturn,1
 Non-Parent Node Connection,NODE 5,ZONEHVAC:EQUIPMENTCONNECTIONS,997_OFFICE_1_WEST PERIMETER,ZoneInlet,1
 Non-Parent Node Connection,NODE 30,ZONEHVAC:EQUIPMENTCONNECTIONS,997_OFFICE_2_CORE,ZoneNode,1
 Non-Parent Node Connection,NODE 62,ZONEHVAC:EQUIPMENTCONNECTIONS,997_OFFICE_2_CORE,ZoneReturn,1
 Non-Parent Node Connection,NODE 61,ZONEHVAC:EQUIPMENTCONNECTIONS,997_OFFICE_2_CORE,ZoneInlet,1
 Non-Parent Node Connection,NODE 28,ZONEHVAC:EQUIPMENTCONNECTIONS,997_OFFICE_2_EAST PERIMETER,ZoneNode,1
 Non-Parent Node Connection,NODE 56,ZONEHVAC:EQUIPMENTCONNECTIONS,997_OFFICE_2_EAST PERIMETER,ZoneReturn,1
 Non-Parent Node Connection,NODE 55,ZONEHVAC:EQUIPMENTCONNECTIONS,997_OFFICE_2_EAST PERIMETER,ZoneInlet,1
 Non-Parent Node Connection,NODE 27,ZONEHVAC:EQUIPMENTCONNECTIONS,997_OFFICE_2_NORTH PERIMETER,ZoneNode,1
 Non-Parent Node Connection,NODE 53,ZONEHVAC:EQUIPMENTCONNECTIONS,997_OFFICE_2_NORTH PERIMETER,ZoneReturn,1
 Non-Parent Node Connection,NODE 52,ZONEHVAC:EQUIPMENTCONNECTIONS,997_OFFICE_2_NORTH PERIMETER,ZoneInlet,1
 Non-Parent Node Connection,NODE 29,ZONEHVAC:EQUIPMENTCONNECTIONS,997_OFFICE_2_SOUTH PERIMETER,ZoneNode,1
 Non-Parent Node Connection,NODE 59,ZONEHVAC:EQUIPMENTCONNECTIONS,997_OFFICE_2_SOUTH PERIMETER,ZoneReturn,1
 Non-Parent Node Connection,NODE 58,ZONEHVAC:EQUIPMENTCONNECTIONS,997_OFFICE_2_SOUTH PERIMETER,ZoneInlet,1
 Non-Parent Node Connection,NODE 26,ZONEHVAC:EQUIPMENTCONNECTIONS,997_OFFICE_2_WEST PERIMETER,ZoneNode,1
 Non-Parent Node Connection,NODE 50,ZONEHVAC:EQUIPMENTCONNECTIONS,997_OFFICE_2_WEST PERIMETER,ZoneReturn,1
 Non-Parent Node Connection,NODE 49,ZONEHVAC:EQUIPMENTCONNECTIONS,997_OFFICE_2_WEST PERIMETER,ZoneInlet,1
 Non-Parent Node Connection,NODE 35,ZONEHVAC:EQUIPMENTCONNECTIONS,997_OFFICE_3_CORE,ZoneNode,1
 Non-Parent Node Connection,NODE 77,ZONEHVAC:EQUIPMENTCONNECTIONS,997_OFFICE_3_CORE,ZoneReturn,1
 Non-Parent Node Connection,NODE 76,ZONEHVAC:EQUIPMENTCONNECTIONS,997_OFFICE_3_CORE,ZoneInlet,1
 Non-Parent Node Connection,NODE 33,ZONEHVAC:EQUIPMENTCONNECTIONS,997_OFFICE_3_EAST PERIMETER,ZoneNode,1
 Non-Parent Node Connection,NODE 71,ZONEHVAC:EQUIPMENTCONNECTIONS,997_OFFICE_3_EAST PERIMETER,ZoneReturn,1
 Non-Parent Node Connection,NODE 70,ZONEHVAC:EQUIPMENTCONNECTIONS,997_OFFICE_3_EAST PERIMETER,ZoneInlet,1
 Non-Parent Node Connection,NODE 32,ZONEHVAC:EQUIPMENTCONNECTIONS,997_OFFICE_3_NORTH PERIMETER,ZoneNode,1
 Non-Parent Node Connection,NODE 68,ZONEHVAC:EQUIPMENTCONNECTIONS,997_OFFICE_3_NORTH PERIMETER,ZoneReturn,1
 Non-Parent Node Connection,NODE 67,ZONEHVAC:EQUIPMENTCONNECTIONS,997_OFFICE_3_NORTH PERIMETER,ZoneInlet,1
 Non-Parent Node Connection,NODE 34,ZONEHVAC:EQUIPMENTCONNECTIONS,997_OFFICE_3_SOUTH PERIMETER,ZoneNode,1
 Non-Parent Node Connection,NODE 74,ZONEHVAC:EQUIPMENTCONNECTIONS,997_OFFICE_3_SOUTH PERIMETER,ZoneReturn,1
 Non-Parent Node Connection,NODE 73,ZONEHVAC:EQUIPMENTCONNECTIONS,997_OFFICE_3_SOUTH PERIMETER,ZoneInlet,1
 Non-Parent Node Connection,NODE 31,ZONEHVAC:EQUIPMENTCONNECTIONS,997_OFFICE_3_WEST PERIMETER,ZoneNode,1
 Non-Parent Node Connection,NODE 65,ZONEHVAC:EQUIPMENTCONNECTIONS,997_OFFICE_3_WEST PERIMETER,ZoneReturn,1
 Non-Parent Node Connection,NODE 64,ZONEHVAC:EQUIPMENTCONNECTIONS,997_OFFICE_3_WEST PERIMETER,ZoneInlet,1
 Non-Parent Node Connection,NODE 17,WATERUSE:CONNECTIONS,WATER USE CONNECTIONS 1,Inlet,1
 Non-Parent Node Connection,NODE 20,WATERUSE:CONNECTIONS,WATER USE CONNECTIONS 1,Outlet,1
 Non-Parent Node Connection,NODE 3,AIRLOOPHVAC:ZONESPLITTER,AIR LOOP HVAC ZONE SPLITTER 1,Inlet,1
 Non-Parent Node Connection,NODE 36,AIRLOOPHVAC:ZONESPLITTER,AIR LOOP HVAC ZONE SPLITTER 1,Outlet,1
 Non-Parent Node Connection,NODE 39,AIRLOOPHVAC:ZONESPLITTER,AIR LOOP HVAC ZONE SPLITTER 1,Outlet,1
 Non-Parent Node Connection,NODE 42,AIRLOOPHVAC:ZONESPLITTER,AIR LOOP HVAC ZONE SPLITTER 1,Outlet,1
 Non-Parent Node Connection,NODE 45,AIRLOOPHVAC:ZONESPLITTER,AIR LOOP HVAC ZONE SPLITTER 1,Outlet,1
 Non-Parent Node Connection,NODE 48,AIRLOOPHVAC:ZONESPLITTER,AIR LOOP HVAC ZONE SPLITTER 1,Outlet,1
 Non-Parent Node Connection,NODE 51,AIRLOOPHVAC:ZONESPLITTER,AIR LOOP HVAC ZONE SPLITTER 1,Outlet,1
 Non-Parent Node Connection,NODE 54,AIRLOOPHVAC:ZONESPLITTER,AIR LOOP HVAC ZONE SPLITTER 1,Outlet,1
 Non-Parent Node Connection,NODE 57,AIRLOOPHVAC:ZONESPLITTER,AIR LOOP HVAC ZONE SPLITTER 1,Outlet,1
 Non-Parent Node Connection,NODE 60,AIRLOOPHVAC:ZONESPLITTER,AIR LOOP HVAC ZONE SPLITTER 1,Outlet,1
 Non-Parent Node Connection,NODE 63,AIRLOOPHVAC:ZONESPLITTER,AIR LOOP HVAC ZONE SPLITTER 1,Outlet,1
 Non-Parent Node Connection,NODE 66,AIRLOOPHVAC:ZONESPLITTER,AIR LOOP HVAC ZONE SPLITTER 1,Outlet,1
 Non-Parent Node Connection,NODE 69,AIRLOOPHVAC:ZONESPLITTER,AIR LOOP HVAC ZONE SPLITTER 1,Outlet,1
 Non-Parent Node Connection,NODE 72,AIRLOOPHVAC:ZONESPLITTER,AIR LOOP HVAC ZONE SPLITTER 1,Outlet,1
 Non-Parent Node Connection,NODE 75,AIRLOOPHVAC:ZONESPLITTER,AIR LOOP HVAC ZONE SPLITTER 1,Outlet,1
 Non-Parent Node Connection,NODE 78,AIRLOOPHVAC:ZONESPLITTER,AIR LOOP HVAC ZONE SPLITTER 1,Outlet,1
 Non-Parent Node Connection,AIR TERMINAL SINGLE DUCT VAV REHEAT 6 DAMPER OUTLET,AIRTERMINAL:SINGLEDUCT:VAV:REHEAT,AIR TERMINAL SINGLE DUCT VAV REHEAT 6,Outlet,1
 Non-Parent Node Connection,NODE 48,AIRTERMINAL:SINGLEDUCT:VAV:REHEAT,AIR TERMINAL SINGLE DUCT VAV REHEAT 6,Inlet,1
 Non-Parent Node Connection,AIR TERMINAL SINGLE DUCT VAV REHEAT 4 DAMPER OUTLET,AIRTERMINAL:SINGLEDUCT:VAV:REHEAT,AIR TERMINAL SINGLE DUCT VAV REHEAT 4,Outlet,1
 Non-Parent Node Connection,NODE 42,AIRTERMINAL:SINGLEDUCT:VAV:REHEAT,AIR TERMINAL SINGLE DUCT VAV REHEAT 4,Inlet,1
 Non-Parent Node Connection,AIR TERMINAL SINGLE DUCT VAV REHEAT 3 DAMPER OUTLET,AIRTERMINAL:SINGLEDUCT:VAV:REHEAT,AIR TERMINAL SINGLE DUCT VAV REHEAT 3,Outlet,1
 Non-Parent Node Connection,NODE 39,AIRTERMINAL:SINGLEDUCT:VAV:REHEAT,AIR TERMINAL SINGLE DUCT VAV REHEAT 3,Inlet,1
 Non-Parent Node Connection,AIR TERMINAL SINGLE DUCT VAV REHEAT 5 DAMPER OUTLET,AIRTERMINAL:SINGLEDUCT:VAV:REHEAT,AIR TERMINAL SINGLE DUCT VAV REHEAT 5,Outlet,1
 Non-Parent Node Connection,NODE 45,AIRTERMINAL:SINGLEDUCT:VAV:REHEAT,AIR TERMINAL SINGLE DUCT VAV REHEAT 5,Inlet,1
 Non-Parent Node Connection,AIR TERMINAL SINGLE DUCT VAV REHEAT 2 DAMPER OUTLET,AIRTERMINAL:SINGLEDUCT:VAV:REHEAT,AIR TERMINAL SINGLE DUCT VAV REHEAT 2,Outlet,1
 Non-Parent Node Connection,NODE 36,AIRTERMINAL:SINGLEDUCT:VAV:REHEAT,AIR TERMINAL SINGLE DUCT VAV REHEAT 2,Inlet,1
 Non-Parent Node Connection,AIR TERMINAL SINGLE DUCT VAV REHEAT 11 DAMPER OUTLET,AIRTERMINAL:SINGLEDUCT:VAV:REHEAT,AIR TERMINAL SINGLE DUCT VAV REHEAT 11,Outlet,1
 Non-Parent Node Connection,NODE 63,AIRTERMINAL:SINGLEDUCT:VAV:REHEAT,AIR TERMINAL SINGLE DUCT VAV REHEAT 11,Inlet,1
 Non-Parent Node Connection,AIR TERMINAL SINGLE DUCT VAV REHEAT 9 DAMPER OUTLET,AIRTERMINAL:SINGLEDUCT:VAV:REHEAT,AIR TERMINAL SINGLE DUCT VAV REHEAT 9,Outlet,1
 Non-Parent Node Connection,NODE 57,AIRTERMINAL:SINGLEDUCT:VAV:REHEAT,AIR TERMINAL SINGLE DUCT VAV REHEAT 9,Inlet,1
 Non-Parent Node Connection,AIR TERMINAL SINGLE DUCT VAV REHEAT 8 DAMPER OUTLET,AIRTERMINAL:SINGLEDUCT:VAV:REHEAT,AIR TERMINAL SINGLE DUCT VAV REHEAT 8,Outlet,1
 Non-Parent Node Connection,NODE 54,AIRTERMINAL:SINGLEDUCT:VAV:REHEAT,AIR TERMINAL SINGLE DUCT VAV REHEAT 8,Inlet,1
 Non-Parent Node Connection,AIR TERMINAL SINGLE DUCT VAV REHEAT 10 DAMPER OUTLET,AIRTERMINAL:SINGLEDUCT:VAV:REHEAT,AIR TERMINAL SINGLE DUCT VAV REHEAT 10,Outlet,1
 Non-Parent Node Connection,NODE 60,AIRTERMINAL:SINGLEDUCT:VAV:REHEAT,AIR TERMINAL SINGLE DUCT VAV REHEAT 10,Inlet,1
 Non-Parent Node Connection,AIR TERMINAL SINGLE DUCT VAV REHEAT 7 DAMPER OUTLET,AIRTERMINAL:SINGLEDUCT:VAV:REHEAT,AIR TERMINAL SINGLE DUCT VAV REHEAT 7,Outlet,1
 Non-Parent Node Connection,NODE 51,AIRTERMINAL:SINGLEDUCT:VAV:REHEAT,AIR TERMINAL SINGLE DUCT VAV REHEAT 7,Inlet,1
 Non-Parent Node Connection,AIR TERMINAL SINGLE DUCT VAV REHEAT 16 DAMPER OUTLET,AIRTERMINAL:SINGLEDUCT:VAV:REHEAT,AIR TERMINAL SINGLE DUCT VAV REHEAT 16,Outlet,1
 Non-Parent Node Connection,NODE 78,AIRTERMINAL:SINGLEDUCT:VAV:REHEAT,AIR TERMINAL SINGLE DUCT VAV REHEAT 16,Inlet,1
 Non-Parent Node Connection,AIR TERMINAL SINGLE DUCT VAV REHEAT 14 DAMPER OUTLET,AIRTERMINAL:SINGLEDUCT:VAV:REHEAT,AIR TERMINAL SINGLE DUCT VAV REHEAT 14,Outlet,1
 Non-Parent Node Connection,NODE 72,AIRTERMINAL:SINGLEDUCT:VAV:REHEAT,AIR TERMINAL SINGLE DUCT VAV REHEAT 14,Inlet,1
 Non-Parent Node Connection,AIR TERMINAL SINGLE DUCT VAV REHEAT 13 DAMPER OUTLET,AIRTERMINAL:SINGLEDUCT:VAV:REHEAT,AIR TERMINAL SINGLE DUCT VAV REHEAT 13,Outlet,1
 Non-Parent Node Connection,NODE 69,AIRTERMINAL:SINGLEDUCT:VAV:REHEAT,AIR TERMINAL SINGLE DUCT VAV REHEAT 13,Inlet,1
 Non-Parent Node Connection,AIR TERMINAL SINGLE DUCT VAV REHEAT 15 DAMPER OUTLET,AIRTERMINAL:SINGLEDUCT:VAV:REHEAT,AIR TERMINAL SINGLE DUCT VAV REHEAT 15,Outlet,1
 Non-Parent Node Connection,NODE 75,AIRTERMINAL:SINGLEDUCT:VAV:REHEAT,AIR TERMINAL SINGLE DUCT VAV REHEAT 15,Inlet,1
 Non-Parent Node Connection,AIR TERMINAL SINGLE DUCT VAV REHEAT 12 DAMPER OUTLET,AIRTERMINAL:SINGLEDUCT:VAV:REHEAT,AIR TERMINAL SINGLE DUCT VAV REHEAT 12,Outlet,1
 Non-Parent Node Connection,NODE 66,AIRTERMINAL:SINGLEDUCT:VAV:REHEAT,AIR TERMINAL SINGLE DUCT VAV REHEAT 12,Inlet,1
 Non-Parent Node Connection,AIR TERMINAL SINGLE DUCT VAV REHEAT 6 DAMPER OUTLET,COIL:HEATING:ELECTRIC,COIL HEATING ELECTRIC 7,Inlet,1
 Non-Parent Node Connection,NODE 46,COIL:HEATING:ELECTRIC,COIL HEATING ELECTRIC 7,Outlet,1
 Non-Parent Node Connection,AIR TERMINAL SINGLE DUCT VAV REHEAT 4 DAMPER OUTLET,COIL:HEATING:ELECTRIC,COIL HEATING ELECTRIC 5,Inlet,1
 Non-Parent Node Connection,NODE 40,COIL:HEATING:ELECTRIC,COIL HEATING ELECTRIC 5,Outlet,1
 Non-Parent Node Connection,AIR TERMINAL SINGLE DUCT VAV REHEAT 3 DAMPER OUTLET,COIL:HEATING:ELECTRIC,COIL HEATING ELECTRIC 4,Inlet,1
 Non-Parent Node Connection,NODE 37,COIL:HEATING:ELECTRIC,COIL HEATING ELECTRIC 4,Outlet,1
 Non-Parent Node Connection,AIR TERMINAL SINGLE DUCT VAV REHEAT 5 DAMPER OUTLET,COIL:HEATING:ELECTRIC,COIL HEATING ELECTRIC 6,Inlet,1
 Non-Parent Node Connection,NODE 43,COIL:HEATING:ELECTRIC,COIL HEATING ELECTRIC 6,Outlet,1
 Non-Parent Node Connection,AIR TERMINAL SINGLE DUCT VAV REHEAT 2 DAMPER OUTLET,COIL:HEATING:ELECTRIC,COIL HEATING ELECTRIC 3,Inlet,1
 Non-Parent Node Connection,NODE 5,COIL:HEATING:ELECTRIC,COIL HEATING ELECTRIC 3,Outlet,1
 Non-Parent Node Connection,AIR TERMINAL SINGLE DUCT VAV REHEAT 11 DAMPER OUTLET,COIL:HEATING:ELECTRIC,COIL HEATING ELECTRIC 12,Inlet,1
 Non-Parent Node Connection,NODE 61,COIL:HEATING:ELECTRIC,COIL HEATING ELECTRIC 12,Outlet,1
 Non-Parent Node Connection,AIR TERMINAL SINGLE DUCT VAV REHEAT 9 DAMPER OUTLET,COIL:HEATING:ELECTRIC,COIL HEATING ELECTRIC 10,Inlet,1
 Non-Parent Node Connection,NODE 55,COIL:HEATING:ELECTRIC,COIL HEATING ELECTRIC 10,Outlet,1
 Non-Parent Node Connection,AIR TERMINAL SINGLE DUCT VAV REHEAT 8 DAMPER OUTLET,COIL:HEATING:ELECTRIC,COIL HEATING ELECTRIC 9,Inlet,1
 Non-Parent Node Connection,NODE 52,COIL:HEATING:ELECTRIC,COIL HEATING ELECTRIC 9,Outlet,1
 Non-Parent Node Connection,AIR TERMINAL SINGLE DUCT VAV REHEAT 10 DAMPER OUTLET,COIL:HEATING:ELECTRIC,COIL HEATING ELECTRIC 11,Inlet,1
 Non-Parent Node Connection,NODE 58,COIL:HEATING:ELECTRIC,COIL HEATING ELECTRIC 11,Outlet,1
 Non-Parent Node Connection,AIR TERMINAL SINGLE DUCT VAV REHEAT 7 DAMPER OUTLET,COIL:HEATING:ELECTRIC,COIL HEATING ELECTRIC 8,Inlet,1
 Non-Parent Node Connection,NODE 49,COIL:HEATING:ELECTRIC,COIL HEATING ELECTRIC 8,Outlet,1
 Non-Parent Node Connection,AIR TERMINAL SINGLE DUCT VAV REHEAT 16 DAMPER OUTLET,COIL:HEATING:ELECTRIC,COIL HEATING ELECTRIC 17,Inlet,1
 Non-Parent Node Connection,NODE 76,COIL:HEATING:ELECTRIC,COIL HEATING ELECTRIC 17,Outlet,1
 Non-Parent Node Connection,AIR TERMINAL SINGLE DUCT VAV REHEAT 14 DAMPER OUTLET,COIL:HEATING:ELECTRIC,COIL HEATING ELECTRIC 15,Inlet,1
 Non-Parent Node Connection,NODE 70,COIL:HEATING:ELECTRIC,COIL HEATING ELECTRIC 15,Outlet,1
 Non-Parent Node Connection,AIR TERMINAL SINGLE DUCT VAV REHEAT 13 DAMPER OUTLET,COIL:HEATING:ELECTRIC,COIL HEATING ELECTRIC 14,Inlet,1
 Non-Parent Node Connection,NODE 67,COIL:HEATING:ELECTRIC,COIL HEATING ELECTRIC 14,Outlet,1
 Non-Parent Node Connection,AIR TERMINAL SINGLE DUCT VAV REHEAT 15 DAMPER OUTLET,COIL:HEATING:ELECTRIC,COIL HEATING ELECTRIC 16,Inlet,1
 Non-Parent Node Connection,NODE 73,COIL:HEATING:ELECTRIC,COIL HEATING ELECTRIC 16,Outlet,1
 Non-Parent Node Connection,AIR TERMINAL SINGLE DUCT VAV REHEAT 12 DAMPER OUTLET,COIL:HEATING:ELECTRIC,COIL HEATING ELECTRIC 13,Inlet,1
 Non-Parent Node Connection,NODE 64,COIL:HEATING:ELECTRIC,COIL HEATING ELECTRIC 13,Outlet,1
 Non-Parent Node Connection,NODE 9,COIL:HEATING:ELECTRIC,COIL HEATING ELECTRIC 1,Inlet,1
 Non-Parent Node Connection,NODE 10,COIL:HEATING:ELECTRIC,COIL HEATING ELECTRIC 1,Outlet,1
 Non-Parent Node Connection,NODE 2,COIL:HEATING:ELECTRIC,COIL HEATING ELECTRIC 1,Sensor,1
 Non-Parent Node Connection,NODE 4,AIRLOOPHVAC:ZONEMIXER,AIR LOOP HVAC ZONE MIXER 1,Outlet,1
 Non-Parent Node Connection,NODE 11,AIRLOOPHVAC:ZONEMIXER,AIR LOOP HVAC ZONE MIXER 1,Inlet,1
 Non-Parent Node Connection,NODE 38,AIRLOOPHVAC:ZONEMIXER,AIR LOOP HVAC ZONE MIXER 1,Inlet,1
 Non-Parent Node Connection,NODE 41,AIRLOOPHVAC:ZONEMIXER,AIR LOOP HVAC ZONE MIXER 1,Inlet,1
 Non-Parent Node Connection,NODE 44,AIRLOOPHVAC:ZONEMIXER,AIR LOOP HVAC ZONE MIXER 1,Inlet,1
 Non-Parent Node Connection,NODE 47,AIRLOOPHVAC:ZONEMIXER,AIR LOOP HVAC ZONE MIXER 1,Inlet,1
 Non-Parent Node Connection,NODE 50,AIRLOOPHVAC:ZONEMIXER,AIR LOOP HVAC ZONE MIXER 1,Inlet,1
 Non-Parent Node Connection,NODE 53,AIRLOOPHVAC:ZONEMIXER,AIR LOOP HVAC ZONE MIXER 1,Inlet,1
 Non-Parent Node Connection,NODE 56,AIRLOOPHVAC:ZONEMIXER,AIR LOOP HVAC ZONE MIXER 1,Inlet,1
 Non-Parent Node Connection,NODE 59,AIRLOOPHVAC:ZONEMIXER,AIR LOOP HVAC ZONE MIXER 1,Inlet,1
 Non-Parent Node Connection,NODE 62,AIRLOOPHVAC:ZONEMIXER,AIR LOOP HVAC ZONE MIXER 1,Inlet,1
 Non-Parent Node Connection,NODE 65,AIRLOOPHVAC:ZONEMIXER,AIR LOOP HVAC ZONE MIXER 1,Inlet,1
 Non-Parent Node Connection,NODE 68,AIRLOOPHVAC:ZONEMIXER,AIR LOOP HVAC ZONE MIXER 1,Inlet,1
 Non-Parent Node Connection,NODE 71,AIRLOOPHVAC:ZONEMIXER,AIR LOOP HVAC ZONE MIXER 1,Inlet,1
 Non-Parent Node Connection,NODE 74,AIRLOOPHVAC:ZONEMIXER,AIR LOOP HVAC ZONE MIXER 1,Inlet,1
 Non-Parent Node Connection,NODE 77,AIRLOOPHVAC:ZONEMIXER,AIR LOOP HVAC ZONE MIXER 1,Inlet,1
 Non-Parent Node Connection,NODE 8,OUTDOORAIR:MIXER,AIR LOOP HVAC OUTDOOR AIR SYSTEM 1 OUTDOOR AIR MIXER,Outlet,1
 Non-Parent Node Connection,NODE 6,OUTDOORAIR:MIXER,AIR LOOP HVAC OUTDOOR AIR SYSTEM 1 OUTDOOR AIR MIXER,Inlet,1
 Non-Parent Node Connection,NODE 7,OUTDOORAIR:MIXER,AIR LOOP HVAC OUTDOOR AIR SYSTEM 1 OUTDOOR AIR MIXER,ReliefAir,1
 Non-Parent Node Connection,NODE 1,OUTDOORAIR:MIXER,AIR LOOP HVAC OUTDOOR AIR SYSTEM 1 OUTDOOR AIR MIXER,Inlet,1
 Non-Parent Node Connection,NODE 10,FAN:VARIABLEVOLUME,FAN VARIABLE VOLUME 1,Inlet,1
 Non-Parent Node Connection,NODE 2,FAN:VARIABLEVOLUME,FAN VARIABLE VOLUME 1,Outlet,1
 Non-Parent Node Connection,NODE 8,CONTROLLER:OUTDOORAIR,CONTROLLER OUTDOOR AIR 1,Sensor,1
 Non-Parent Node Connection,NODE 6,CONTROLLER:OUTDOORAIR,CONTROLLER OUTDOOR AIR 1,Actuator,1
 Non-Parent Node Connection,NODE 7,CONTROLLER:OUTDOORAIR,CONTROLLER OUTDOOR AIR 1,Actuator,1
 Non-Parent Node Connection,NODE 1,CONTROLLER:OUTDOORAIR,CONTROLLER OUTDOOR AIR 1,Sensor,1
 Non-Parent Node Connection,NODE 8,COIL:COOLING:DX:TWOSPEED,COIL COOLING DX TWO SPEED 1,Inlet,1
 Non-Parent Node Connection,NODE 9,COIL:COOLING:DX:TWOSPEED,COIL COOLING DX TWO SPEED 1,Outlet,1
 Non-Parent Node Connection,NODE 12,PUMP:VARIABLESPEED,SHW: PUMP FOR SERVICE HOT WATER,Inlet,1
 Non-Parent Node Connection,NODE 18,PUMP:VARIABLESPEED,SHW: PUMP FOR SERVICE HOT WATER,Outlet,1
