Program Version,EnergyPlus, Version 8.6.0-198c6a3cff, YMD=2017.03.26 23:13,IDD_Version 8.6.0
   ** Severe  ** HVACTemplate objects are found in the IDF File.
   **  Fatal  ** Program Terminates: The ExpandObjects program has not been run or is not in your EnergyPlus.exe folder.
   ...Summary of Errors that led to program termination:
   ..... Reference severe error count=1
   ..... Last severe error=HVACTemplate objects are found in the IDF File.
   ************* Warning:  Node connection errors not checked - most system input has not been read (see previous warning).
   ************* Fatal error -- final processing.  Program exited before simulations began.  See previous error messages.
   ************* EnergyPlus Warmup Error Summary. During Warmup: 0 Warning; 0 Severe Errors.
   ************* EnergyPlus Sizing Error Summary. During Sizing: 0 Warning; 0 Severe Errors.
   ************* EnergyPlus Terminated--Fatal Error Detected. 0 Warning; 1 Severe Errors; Elapsed Time=00hr 00min  0.55sec
