Program Version,EnergyPlus, Version 8.6.0-198c6a3cff, YMD=2017.03.26 23:23
! This file shows details about the branches, nodes, and other
! elements of the flow connections.
! This file is intended for use in "debugging" potential problems
! that may also be detected by the program, but may be more easily
! identified by "eye".
! This file is also intended to support software which draws a
! schematic diagram of the HVAC system.
! ===============================================================
! #Nodes,<Number of Unique Nodes>
 #Nodes,17
! <Node>,<NodeNumber>,<Node Name>,<Node Fluid Type>,<# Times Node Referenced After Definition>
 Node,1,NODE 12,Water,2
 Node,2,NODE 20,Water,1
 Node,3,NODE 14,Water,1
 Node,4,NODE 18,Water,1
 Node,5,WATER LOOP SUPPLY OUTLET PIPE NODE,Water,1
 Node,6,NODE 13,Water,4
 Node,7,NODE 15,Water,2
 Node,8,WATER LOOP DEMAND INLET PIPE NODE,Water,1
 Node,9,NODE 17,Water,1
 Node,10,NODE 19,Water,1
 Node,11,WATER LOOP DEMAND BYPASS PIPE INLET NODE,Water,1
 Node,12,WATER LOOP DEMAND BYPASS PIPE OUTLET NODE,Water,1
 Node,13,WATER LOOP DEMAND OUTLET PIPE NODE,Water,1
 Node,14,NODE 16,Water,2
 Node,15,THERMAL ZONE 1 ZONE AIR NODE,Air,0
 Node,16,THERMAL ZONE 1 RETURN OUTLET,Air,0
 Node,17,THERMAL ZONE 1 IDEAL LOADS SUPPLY INLET,Air,1
! ===============================================================
! Suspicious nodes have 0 references.  It is normal for some nodes, however.
! Listing nodes with 0 references (culled from previous list):
! <Suspicious Node>,<NodeNumber>,<Node Name>,<Node Fluid Type>,<# Times Node Referenced After Definition>
 Suspicious Node,15,THERMAL ZONE 1 ZONE AIR NODE,Air,0
 Suspicious Node,16,THERMAL ZONE 1 RETURN OUTLET,Air,0
! ===============================================================
! <#Branch Lists>,<Number of Branch Lists>
 #Branch Lists,2
! <Branch List>,<Branch List Count>,<Branch List Name>,<Loop Name>,<Loop Type>,<Number of Branches>
! <Branch>,<Branch Count>,<Branch Name>,<Loop Name>,<Loop Type>,<Branch Inlet Node Name>,<Branch Outlet Node Name>
 Branch List,1,WATER LOOP SUPPLY BRANCHES,WATER LOOP,Plant Supply,3
   Branch,1,WATER LOOP SUPPLY INLET BRANCH,WATER LOOP,Plant Supply,NODE 12,NODE 20
   Branch,2,WATER LOOP SUPPLY BRANCH 1,WATER LOOP,Plant Supply,NODE 14,NODE 18
   Branch,3,WATER LOOP SUPPLY OUTLET BRANCH,WATER LOOP,Plant Supply,WATER LOOP SUPPLY OUTLET PIPE NODE,NODE 13
 Branch List,2,WATER LOOP DEMAND BRANCHES,WATER LOOP,Plant Demand,4
   Branch,1,WATER LOOP DEMAND INLET BRANCH,WATER LOOP,Plant Demand,NODE 15,WATER LOOP DEMAND INLET PIPE NODE
   Branch,2,WATER LOOP DEMAND BRANCH 1,WATER LOOP,Plant Demand,NODE 17,NODE 19
   Branch,3,WATER LOOP DEMAND BYPASS BRANCH,WATER LOOP,Plant Demand,WATER LOOP DEMAND BYPASS PIPE INLET NODE,WATER LOOP DEMAND BYPASS PIPE OUTLET NODE
   Branch,4,WATER LOOP DEMAND OUTLET BRANCH,WATER LOOP,Plant Demand,WATER LOOP DEMAND OUTLET PIPE NODE,NODE 16
! ===============================================================
! <#Supply Air Paths>,<Number of Supply Air Paths>
 #Supply Air Paths,0
! <Supply Air Path>,<Supply Air Path Count>,<Supply Air Path Name>,<AirLoopHVAC Name>
! <#Components on Supply Air Path>,<Number of Components>
! <Supply Air Path Component>,<Component Count>,<Component Type>,<Component Name>,<AirLoopHVAC Name>
! <#Outlet Nodes on Supply Air Path Component>,<Number of Nodes>
! <Supply Air Path Component Nodes>,<Node Count>,<Component Type>,<Component Name>,<Inlet Node Name>,<Outlet Node Name>,<AirLoopHVAC Name>
! ===============================================================
! <#Return Air Paths>,<Number of Return Air Paths>
 #Return Air Paths,0
! <Return Air Path>,<Return Air Path Count>,<Return Air Path Name>,<AirLoopHVAC Name>
! <#Components on Return Air Path>,<Number of Components>
! <Return Air Path Component>,<Component Count>,<Component Type>,<Component Name>,<AirLoopHVAC Name>
! <#Inlet Nodes on Return Air Path Component>,<Number of Nodes>
! <Return Air Path Component Nodes>,<Node Count>,<Component Type>,<Component Name>,<Inlet Node Name>,<Outlet Node Name>,<AirLoopHVAC Name>
! ===============================================================
! #Outdoor Air Nodes,<Number of Outdoor Air Nodes>
 #Outdoor Air Nodes,0
! ===============================================================
! <#Component Sets>,<Number of Component Sets>
 #Component Sets,7
! <Component Set>,<Component Set Count>,<Parent Object Type>,<Parent Object Name>,<Component Type>,<Component Name>,<Inlet Node ID>,<Outlet Node ID>,<Description>
 Component Set,1,BRANCH,WATER LOOP SUPPLY INLET BRANCH,PUMP:VARIABLESPEED,VAR SPD PUMP,NODE 12,NODE 20,Water Nodes
 Component Set,2,BRANCH,WATER LOOP SUPPLY BRANCH 1,WATERHEATER:MIXED,WATER HEATER,NODE 14,NODE 18,Use Side Water Nodes
 Component Set,3,BRANCH,WATER LOOP SUPPLY OUTLET BRANCH,PIPE:ADIABATIC,WATER LOOP SUPPLY OUTLET PIPE,WATER LOOP SUPPLY OUTLET PIPE NODE,NODE 13,Pipe Nodes
 Component Set,4,BRANCH,WATER LOOP DEMAND INLET BRANCH,PIPE:ADIABATIC,WATER LOOP DEMAND INLET PIPE,NODE 15,WATER LOOP DEMAND INLET PIPE NODE,Pipe Nodes
 Component Set,5,BRANCH,WATER LOOP DEMAND BRANCH 1,WATERUSE:CONNECTIONS,WATER USE CONNECTION,NODE 17,NODE 19,DHW Nodes
 Component Set,6,BRANCH,WATER LOOP DEMAND BYPASS BRANCH,PIPE:ADIABATIC,WATER LOOP DEMAND BYPASS PIPE,WATER LOOP DEMAND BYPASS PIPE INLET NODE,WATER LOOP DEMAND BYPASS PIPE OUTLET NODE,Pipe Nodes
 Component Set,7,BRANCH,WATER LOOP DEMAND OUTLET BRANCH,PIPE:ADIABATIC,WATER LOOP DEMAND OUTLET PIPE,WATER LOOP DEMAND OUTLET PIPE NODE,NODE 16,Pipe Nodes
! ===============================================================
! <# Plant Loops>,<Number of Plant Loops>
 #Plant Loops,1
! <Plant Loop>,<Plant Loop Name>,<Loop Type>,<Inlet Node Name>,<Outlet Node Name>,<Branch List>,<Connector List>
! <Plant Loop Connector>,<Connector Type>,<Connector Name>,<Loop Name>,<Loop Type>,<Number of Inlets/Outlets>
! <Plant Loop Connector Branches>,<Connector Node Count>,<Connector Type>,<Connector Name>,<Inlet Branch>,<Outlet Branch>,<Loop Name>,<Loop Type>
! <Plant Loop Connector Nodes>,<Connector Node Count>,<Connector Type>,<Connector Name>,<Inlet Node>,<Outlet Node>,<Loop Name>,<Loop Type>
! <Plant Loop Supply Connection>,<Plant Loop Name>,<Supply Side Outlet Node Name>,<Demand Side Inlet Node Name>
! <Plant Loop Return Connection>,<Plant Loop Name>,<Demand Side Outlet Node Name>,<Supply Side Inlet Node Name>
 Plant Loop,WATER LOOP,Demand,NODE 15,NODE 16,WATER LOOP DEMAND BRANCHES,WATER LOOP DEMAND CONNECTOR LIST
   Plant Loop Connector,Splitter,WATER LOOP DEMAND SPLITTER,WATER LOOP,Demand,2
     Plant Loop Connector Branches,1,Splitter,WATER LOOP DEMAND SPLITTER,WATER LOOP DEMAND INLET BRANCH,WATER LOOP DEMAND BRANCH 1,WATER LOOP,Demand
     Plant Loop Connector Nodes,   1,Splitter,WATER LOOP DEMAND SPLITTER,WATER LOOP DEMAND INLET PIPE NODE,NODE 17,WATER LOOP,Demand
     Plant Loop Connector Branches,2,Splitter,WATER LOOP DEMAND SPLITTER,WATER LOOP DEMAND INLET BRANCH,WATER LOOP DEMAND BYPASS BRANCH,WATER LOOP,Demand
     Plant Loop Connector Nodes,   2,Splitter,WATER LOOP DEMAND SPLITTER,WATER LOOP DEMAND INLET PIPE NODE,WATER LOOP DEMAND BYPASS PIPE INLET NODE,WATER LOOP,Demand
   Plant Loop Connector,Mixer,WATER LOOP DEMAND MIXER,WATER LOOP,Demand,2
     Plant Loop Connector Branches,1,Mixer,WATER LOOP DEMAND MIXER,WATER LOOP DEMAND BRANCH 1,WATER LOOP DEMAND OUTLET BRANCH,WATER LOOP,Demand
     Plant Loop Connector Nodes,   1,Mixer,WATER LOOP DEMAND MIXER,NODE 19,WATER LOOP DEMAND OUTLET PIPE NODE,WATER LOOP,Demand
     Plant Loop Connector Branches,2,Mixer,WATER LOOP DEMAND MIXER,WATER LOOP DEMAND BYPASS BRANCH,WATER LOOP DEMAND OUTLET BRANCH,WATER LOOP,Demand
     Plant Loop Connector Nodes,   2,Mixer,WATER LOOP DEMAND MIXER,WATER LOOP DEMAND BYPASS PIPE OUTLET NODE,WATER LOOP DEMAND OUTLET PIPE NODE,WATER LOOP,Demand
 Plant Loop,WATER LOOP,Supply,NODE 12,NODE 13,WATER LOOP SUPPLY BRANCHES,WATER LOOP SUPPLY CONNECTOR LIST
   Plant Loop Connector,Splitter,WATER LOOP SUPPLY SPLITTER,WATER LOOP,Supply,1
     Plant Loop Connector Branches,1,Splitter,WATER LOOP SUPPLY SPLITTER,WATER LOOP SUPPLY INLET BRANCH,WATER LOOP SUPPLY BRANCH 1,WATER LOOP,Supply
     Plant Loop Connector Nodes,   1,Splitter,WATER LOOP SUPPLY SPLITTER,NODE 20,NODE 14,WATER LOOP,Supply
   Plant Loop Connector,Mixer,WATER LOOP SUPPLY MIXER,WATER LOOP,Supply,1
     Plant Loop Connector Branches,1,Mixer,WATER LOOP SUPPLY MIXER,WATER LOOP SUPPLY BRANCH 1,WATER LOOP SUPPLY OUTLET BRANCH,WATER LOOP,Supply
     Plant Loop Connector Nodes,   1,Mixer,WATER LOOP SUPPLY MIXER,NODE 18,WATER LOOP SUPPLY OUTLET PIPE NODE,WATER LOOP,Supply
 Plant Loop Supply Connection,WATER LOOP,NODE 13,NODE 15
 Plant Loop Return Connection,WATER LOOP,NODE 16,NODE 12
! ===============================================================
! <# Condenser Loops>,<Number of Condenser Loops>
 #Condenser Loops,0
! <Condenser Loop>,<Condenser Loop Name>,<Loop Type>,<Inlet Node Name>,<Outlet Node Name>,<Branch List>,<Connector List>
! <Condenser Loop Connector>,<Connector Type>,<Connector Name>,<Loop Name>,<Loop Type>,<Number of Inlets/Outlets>
! <Condenser Loop Connector Branches>,<Connector Node Count>,<Connector Type>,<Connector Name>,<Inlet Branch>,<Outlet Branch>,<Loop Name>,<Loop Type>
! <Condenser Loop Connector Nodes>,<Connector Node Count>,<Connector Type>,<Connector Name>,<Inlet Node>,<Outlet Node>,<Loop Name>,<Loop Type>
! <Condenser Loop Supply Connection>,<Condenser Loop Name>,<Supply Side Outlet Node Name>,<Demand Side Inlet Node Name>
! <Condenser Loop Return Connection>,<Condenser Loop Name>,<Demand Side Outlet Node Name>,<Supply Side Inlet Node Name>
! ===============================================================
! <# Controlled Zones>,<Number of Controlled Zones>
 #Controlled Zones,1
! <Controlled Zone>,<Controlled Zone Name>,<Equip List Name>,<Control List Name>,<Zone Node Name>,<Return Air Node Name>,<# Inlet Nodes>,<# Exhaust Nodes>
! <Controlled Zone Inlet>,<Inlet Node Count>,<Controlled Zone Name>,<Supply Air Inlet Node Name>,<SD Sys:Cooling/Heating [DD:Cooling] Inlet Node Name>,<DD Sys:Heating Inlet Node Name>
! <Controlled Zone Exhaust>,<Exhaust Node Count>,<Controlled Zone Name>,<Exhaust Air Node Name>
 Controlled Zone,THERMAL ZONE 1,THERMAL ZONE 1 EQUIPMENT,,THERMAL ZONE 1 ZONE AIR NODE,THERMAL ZONE 1 RETURN OUTLET,1,0
   Controlled Zone Inlet,1,THERMAL ZONE 1,THERMAL ZONE 1 IDEAL LOADS SUPPLY INLET,Undefined,N/A
! ===============================================================
! <#Zone Equipment Lists>,<Number of Zone Equipment Lists>
 #Zone Equipment Lists,1
! <Zone Equipment List>,<Zone Equipment List Count>,<Zone Equipment List Name>,<Zone Name>,<Number of Components>
! <Zone Equipment Component>,<Component Count>,<Component Type>,<Component Name>,<Zone Name>,<Heating Priority>,<Cooling Priority>
 Zone Equipment List,1,THERMAL ZONE 1 EQUIPMENT,THERMAL ZONE 1,1
   Zone Equipment Component,1,ZONEHVAC:IDEALLOADSAIRSYSTEM,THERMAL ZONE 1 IDEAL LOADS AIR SYSTEM,THERMAL ZONE 1,1,1
! ===============================================================
! <#AirLoopHVACs>,<Number of AirLoopHVACs>
 #AirLoopHVACs,0
! <AirLoopHVAC>,<Air Loop Name>,<# Return Nodes>,<# Supply Nodes>,<# Zones Cooled>,<# Zones Heated>,<Outdoor Air Used>
! <AirLoop Return Connections>,<Connection Count>,<AirLoopHVAC Name>,<Zn Eqp Return Node #>,<Zn Eqp Return Node Name>,<AirLoop Return Node #>,<Air Loop Return Node Name>
! <AirLoop Supply Connections>,<Connection Count>,<AirLoopHVAC Name>,<Zn Eqp Supply Node #>,<Zn Eqp Supply Node Name>,<AirLoop Supply Node #>,<Air Loop Supply Node Name>
! <Cooled Zone Info>,<Cooled Zone Count>,<Cooled Zone Name>,<Cooled Zone Inlet Node #>,<Cooled Zone Inlet Node Name>,<AirLoopHVAC Name>
! <Heated Zone Info>,<Heated Zone Count>,<Heated Zone Name>,<Heated Zone Inlet Node #>,<Heated Zone Inlet Node Name>,<AirLoopHVAC Name>
! <Outdoor Air Connections>,<OA Inlet Node #>,<OA Return Air Inlet Node Name>,<OA Outlet Node #>,<OA Mixed Air Outlet Node Name>,<AirLoopHVAC Name>
! <AirLoopHVAC Connector>,<Connector Type>,<Connector Name>,<Loop Name>,<Loop Type>,<Number of Inlets/Outlets>
! <AirLoopHVAC Connector Branches>,<Connector Node Count>,<Connector Type>,<Connector Name>,<Inlet Branch>,<Outlet Branch>,<Loop Name>,<Loop Type>
! <AirLoopHVAC Connector Nodes>,<Connector Node Count>,<Connector Type>,<Connector Name>,<Inlet Node>,<Outlet Node>,<Loop Name>,<Loop Type>
! ===============================================================
! <#Parent Node Connections>,<Number of Parent Node Connections>
 #Parent Node Connections,19
! <Parent Node Connection>,<Node Name>,<Node ObjectType>,<Node ObjectName>,<Node ConnectionType>,<Node FluidStream>
 Parent Node Connection,NODE 12,BRANCH,WATER LOOP SUPPLY INLET BRANCH,Inlet,1
 Parent Node Connection,NODE 20,BRANCH,WATER LOOP SUPPLY INLET BRANCH,Outlet,1
 Parent Node Connection,NODE 14,BRANCH,WATER LOOP SUPPLY BRANCH 1,Inlet,1
 Parent Node Connection,NODE 18,BRANCH,WATER LOOP SUPPLY BRANCH 1,Outlet,1
 Parent Node Connection,WATER LOOP SUPPLY OUTLET PIPE NODE,BRANCH,WATER LOOP SUPPLY OUTLET BRANCH,Inlet,1
 Parent Node Connection,NODE 13,BRANCH,WATER LOOP SUPPLY OUTLET BRANCH,Outlet,1
 Parent Node Connection,NODE 15,BRANCH,WATER LOOP DEMAND INLET BRANCH,Inlet,1
 Parent Node Connection,WATER LOOP DEMAND INLET PIPE NODE,BRANCH,WATER LOOP DEMAND INLET BRANCH,Outlet,1
 Parent Node Connection,NODE 17,BRANCH,WATER LOOP DEMAND BRANCH 1,Inlet,1
 Parent Node Connection,NODE 19,BRANCH,WATER LOOP DEMAND BRANCH 1,Outlet,1
 Parent Node Connection,WATER LOOP DEMAND BYPASS PIPE INLET NODE,BRANCH,WATER LOOP DEMAND BYPASS BRANCH,Inlet,1
 Parent Node Connection,WATER LOOP DEMAND BYPASS PIPE OUTLET NODE,BRANCH,WATER LOOP DEMAND BYPASS BRANCH,Outlet,1
 Parent Node Connection,WATER LOOP DEMAND OUTLET PIPE NODE,BRANCH,WATER LOOP DEMAND OUTLET BRANCH,Inlet,1
 Parent Node Connection,NODE 16,BRANCH,WATER LOOP DEMAND OUTLET BRANCH,Outlet,1
 Parent Node Connection,NODE 12,PLANTLOOP,WATER LOOP,Inlet,1
 Parent Node Connection,NODE 13,PLANTLOOP,WATER LOOP,Outlet,1
 Parent Node Connection,NODE 15,PLANTLOOP,WATER LOOP,Inlet,1
 Parent Node Connection,NODE 16,PLANTLOOP,WATER LOOP,Outlet,1
 Parent Node Connection,NODE 13,PLANTLOOP,WATER LOOP,Sensor,1
! ===============================================================
! <#Non-Parent Node Connections>,<Number of Non-Parent Node Connections>
 #Non-Parent Node Connections,29
! <Non-Parent Node Connection>,<Node Name>,<Node ObjectType>,<Node ObjectName>,<Node ConnectionType>,<Node FluidStream>
 Non-Parent Node Connection,NODE 14,WATERHEATER:MIXED,WATER HEATER,Inlet,1
 Non-Parent Node Connection,NODE 18,WATERHEATER:MIXED,WATER HEATER,Outlet,1
 Non-Parent Node Connection,NODE 13,SETPOINTMANAGER:SCHEDULED,SCHEDULED HW TEMP,Setpoint,1
 Non-Parent Node Connection,WATER LOOP SUPPLY OUTLET PIPE NODE,PIPE:ADIABATIC,WATER LOOP SUPPLY OUTLET PIPE,Inlet,1
 Non-Parent Node Connection,NODE 13,PIPE:ADIABATIC,WATER LOOP SUPPLY OUTLET PIPE,Outlet,1
 Non-Parent Node Connection,NODE 15,PIPE:ADIABATIC,WATER LOOP DEMAND INLET PIPE,Inlet,1
 Non-Parent Node Connection,WATER LOOP DEMAND INLET PIPE NODE,PIPE:ADIABATIC,WATER LOOP DEMAND INLET PIPE,Outlet,1
 Non-Parent Node Connection,WATER LOOP DEMAND BYPASS PIPE INLET NODE,PIPE:ADIABATIC,WATER LOOP DEMAND BYPASS PIPE,Inlet,1
 Non-Parent Node Connection,WATER LOOP DEMAND BYPASS PIPE OUTLET NODE,PIPE:ADIABATIC,WATER LOOP DEMAND BYPASS PIPE,Outlet,1
 Non-Parent Node Connection,WATER LOOP DEMAND OUTLET PIPE NODE,PIPE:ADIABATIC,WATER LOOP DEMAND OUTLET PIPE,Inlet,1
 Non-Parent Node Connection,NODE 16,PIPE:ADIABATIC,WATER LOOP DEMAND OUTLET PIPE,Outlet,1
 Non-Parent Node Connection,WATER LOOP DEMAND INLET PIPE NODE,CONNECTOR:SPLITTER,WATER LOOP DEMAND SPLITTER,Inlet,1
 Non-Parent Node Connection,NODE 17,CONNECTOR:SPLITTER,WATER LOOP DEMAND SPLITTER,Outlet,1
 Non-Parent Node Connection,WATER LOOP DEMAND BYPASS PIPE INLET NODE,CONNECTOR:SPLITTER,WATER LOOP DEMAND SPLITTER,Outlet,1
 Non-Parent Node Connection,WATER LOOP DEMAND OUTLET PIPE NODE,CONNECTOR:MIXER,WATER LOOP DEMAND MIXER,Outlet,1
 Non-Parent Node Connection,NODE 19,CONNECTOR:MIXER,WATER LOOP DEMAND MIXER,Inlet,1
 Non-Parent Node Connection,WATER LOOP DEMAND BYPASS PIPE OUTLET NODE,CONNECTOR:MIXER,WATER LOOP DEMAND MIXER,Inlet,1
 Non-Parent Node Connection,NODE 20,CONNECTOR:SPLITTER,WATER LOOP SUPPLY SPLITTER,Inlet,1
 Non-Parent Node Connection,NODE 14,CONNECTOR:SPLITTER,WATER LOOP SUPPLY SPLITTER,Outlet,1
 Non-Parent Node Connection,WATER LOOP SUPPLY OUTLET PIPE NODE,CONNECTOR:MIXER,WATER LOOP SUPPLY MIXER,Outlet,1
 Non-Parent Node Connection,NODE 18,CONNECTOR:MIXER,WATER LOOP SUPPLY MIXER,Inlet,1
 Non-Parent Node Connection,THERMAL ZONE 1 ZONE AIR NODE,ZONEHVAC:EQUIPMENTCONNECTIONS,THERMAL ZONE 1,ZoneNode,1
 Non-Parent Node Connection,THERMAL ZONE 1 RETURN OUTLET,ZONEHVAC:EQUIPMENTCONNECTIONS,THERMAL ZONE 1,ZoneReturn,1
 Non-Parent Node Connection,THERMAL ZONE 1 IDEAL LOADS SUPPLY INLET,ZONEHVAC:EQUIPMENTCONNECTIONS,THERMAL ZONE 1,ZoneInlet,1
 Non-Parent Node Connection,NODE 17,WATERUSE:CONNECTIONS,WATER USE CONNECTION,Inlet,1
 Non-Parent Node Connection,NODE 19,WATERUSE:CONNECTIONS,WATER USE CONNECTION,Outlet,1
 Non-Parent Node Connection,THERMAL ZONE 1 IDEAL LOADS SUPPLY INLET,ZONEHVAC:IDEALLOADSAIRSYSTEM,THERMAL ZONE 1 IDEAL LOADS AIR SYSTEM,Outlet,1
 Non-Parent Node Connection,NODE 12,PUMP:VARIABLESPEED,VAR SPD PUMP,Inlet,1
 Non-Parent Node Connection,NODE 20,PUMP:VARIABLESPEED,VAR SPD PUMP,Outlet,1
