Program Version,EnergyPlus, Version 8.6.0-198c6a3cff, YMD=2017.03.26 21:06
! <Version>, Version ID
 Version, 8.6
! <Timesteps per Hour>, #TimeSteps, Minutes per TimeStep {minutes}
 Timesteps per Hour,  6, 10
! <System Convergence Limits>, Minimum System TimeStep {minutes}, Max HVAC Iterations, Minimum Plant Iterations, Maximum Plant Iterations
 System Convergence Limits, 1, 20, 2, 8
! <Simulation Control>, Do Zone Sizing, Do System Sizing, Do Plant Sizing, Do Design Days, Do Weather Simulation, Do HVAC Sizing Simulation
 Simulation Control, Yes, Yes, Yes, No, Yes, No
! <Output Reporting Tolerances>, Tolerance for Time Heating Setpoint Not Met, Tolerance for Zone Cooling Setpoint Not Met Time
 Output Reporting Tolerances, 0.200, 0.200, 
! <Site:GroundTemperature:BuildingSurface>, Months From Jan to Dec {C}
 Site:GroundTemperature:BuildingSurface,  19.53,  19.50,  19.54,  19.60,  20.00,  21.64,  22.23,  22.38,  21.45,  20.12,  19.80,  19.63
! <Site:GroundTemperature:FCfactorMethod>, Months From Jan to Dec {C}
 Site:GroundTemperature:FCfactorMethod,  -1.89,  -3.06,  -0.99,   2.23,  10.68,  17.20,  21.60,  22.94,  20.66,  15.60,   8.83,   2.56
! <Site:GroundTemperature:Shallow>, Months From Jan to Dec {C}
 Site:GroundTemperature:Shallow,  13.00,  13.00,  13.00,  13.00,  13.00,  13.00,  13.00,  13.00,  13.00,  13.00,  13.00,  13.00
! <Site:GroundTemperature:Deep>, Months From Jan to Dec {C}
 Site:GroundTemperature:Deep,  16.00,  16.00,  16.00,  16.00,  16.00,  16.00,  16.00,  16.00,  16.00,  16.00,  16.00,  16.00
! <Site:GroundReflectance>, Months From Jan to Dec {dimensionless}
 Site:GroundReflectance,  0.20,  0.20,  0.20,  0.20,  0.20,  0.20,  0.20,  0.20,  0.20,  0.20,  0.20,  0.20
! <Site:GroundReflectance:SnowModifier>, Normal, Daylighting {dimensionless}
 Site:GroundReflectance:SnowModifier,   1.000,   1.000
! <Site:GroundReflectance:Snow>, Months From Jan to Dec {dimensionless}
 Site:GroundReflectance:Snow,  0.20,  0.20,  0.20,  0.20,  0.20,  0.20,  0.20,  0.20,  0.20,  0.20,  0.20,  0.20
! <Site:GroundReflectance:Snow:Daylighting>, Months From Jan to Dec {dimensionless}
 Site:GroundReflectance:Snow:Daylighting,  0.20,  0.20,  0.20,  0.20,  0.20,  0.20,  0.20,  0.20,  0.20,  0.20,  0.20,  0.20
! <Environment:Weather Station>,Wind Sensor Height Above Ground {m},Wind Speed Profile Exponent {},Wind Speed Profile Boundary Layer Thickness {m},Air Temperature Sensor Height Above Ground {m},Wind Speed Modifier Coefficient [Internal],Temperature Modifier Coefficient [Internal]
Environment:Weather Station,10.000,0.140,270.000,1.500,1.586,9.750E-003
! <Site:Location>, Location Name, Latitude {N+/S- Deg}, Longitude {E+/W- Deg},  Time Zone Number {GMT+/-}, Elevation {m},  Standard Pressure at Elevation {Pa}, Standard RhoAir at Elevation
Site:Location,Chicago Ohare Intl Ap IL USA TMY3 WMO#=725300,41.98,-87.92,-6.00,201.00,98934,1.1759
! <Building Information>, Building Name,North Axis {deg},Terrain,  Loads Convergence Tolerance Value,Temperature Convergence Tolerance Value,  Solar Distribution,Maximum Number of Warmup Days,Minimum Number of Warmup Days
 Building Information,CaliberationTestBuilding - PNNL Copy,0.000,Suburbs,4.00000E-002,0.40000,FullExterior,25,6
! <Inside Convection Algorithm>, Algorithm {Simple | TARP | CeilingDiffuser | AdaptiveConvectionAlgorithm}
Inside Convection Algorithm,TARP
! <Outside Convection Algorithm>, Algorithm {SimpleCombined | TARP | MoWitt | DOE-2 | AdaptiveConvectionAlgorithm}
Outside Convection Algorithm,DOE-2
! <Sky Radiance Distribution>, Value {Anisotropic}
Sky Radiance Distribution,Anisotropic
! <Zone Air Solution Algorithm>, Value {ThirdOrderBackwardDifference | AnalyticalSolution | EulerMethod}
 Zone Air Solution Algorithm, ThirdOrderBackwardDifference
! <Zone Air Carbon Dioxide Balance Simulation>, Simulation {Yes/No}, Carbon Dioxide Concentration
 Zone Air Carbon Dioxide Balance Simulation, No,N/A
! <Zone Air Generic Contaminant Balance Simulation>, Simulation {Yes/No}, Generic Contaminant Concentration
 Zone Air Generic Contaminant Balance Simulation, No,N/A
! <Zone Air Mass Flow Balance Simulation>, Enforce Mass Balance, Adjust Zone Mixing, Adjust Zone Infiltration {AddInfiltration | AdjustInfiltration | None}, Infiltration Zones {MixingSourceZonesOnly | AllZones}
 Zone Air Mass Flow Balance Simulation, No,N/A,N/A,N/A
! <Environment:Site Atmospheric Variation>,Wind Speed Profile Exponent {},Wind Speed Profile Boundary Layer Thickness {m},Air Temperature Gradient Coefficient {K/m}
Environment:Site Atmospheric Variation,0.220,370.000,6.500000E-003
! <SurfaceGeometry>,Starting Corner,Vertex Input Direction,Coordinate System,Daylight Reference Point Coordinate System,Rectangular (Simple) Surface Coordinate System
 Surface Geometry,UpperLeftCorner,Counterclockwise,RelativeCoordinateSystem,RelativeCoordinateSystem,RelativeToZoneOrigin
! <Surface Heat Transfer Algorithm>, Value {CTF - ConductionTransferFunction | EMPD - MoisturePenetrationDepthConductionTransferFunction | CondFD - ConductionFiniteDifference | HAMT - CombinedHeatAndMoistureFiniteElement} - Description,Inside Surface Max Temperature Limit{C}, Surface Convection Coefficient Lower Limit {W/m2-K}, Surface Convection Coefficient Upper Limit {W/m2-K}
Surface Heat Transfer Algorithm, CTF - ConductionTransferFunction,200,0.10,1000.0
! <Shading Summary>, Number of Fixed Detached Shades, Number of Building Detached Shades, Number of Attached Shades
 Shading Summary,0,0,0
! <Zone Summary>, Number of Zones, Number of Zone Surfaces, Number of SubSurfaces
 Zone Summary,15,103,13
! <Zone Information>,Zone Name,North Axis {deg},Origin X-Coordinate {m},Origin Y-Coordinate {m},Origin Z-Coordinate {m},Centroid X-Coordinate {m},Centroid Y-Coordinate {m},Centroid Z-Coordinate {m},Type,Zone Multiplier,Zone List Multiplier,Minimum X {m},Maximum X {m},Minimum Y {m},Maximum Y {m},Minimum Z {m},Maximum Z {m},Ceiling Height {m},Volume {m3},Zone Inside Convection Algorithm {Simple-Detailed-CeilingDiffuser-TrombeWall},Zone Outside Convection Algorithm {Simple-Detailed-Tarp-MoWitt-DOE-2-BLAST}, Floor Area {m2},Exterior Gross Wall Area {m2},Exterior Net Wall Area {m2},Exterior Window Area {m2}, Number of Surfaces, Number of SubSurfaces, Number of Shading SubSurfaces,  Part of Total Building Area
 Zone Information, 997_OFFICE_1_CORE,105.0,0.00,0.00,0.00,-7.89E-008,-2.94E-007,2.23,1,1,1,-23.54,23.54,-45.10,45.10,0.00,4.45,4.45,9843.68,TARP,DOE-2,2212.02,0.00,0.00,0.00,6,0,0,Yes
 Zone Information, 997_OFFICE_1_EAST PERIMETER,105.0,0.00,0.00,0.00,-11.84,-44.20,2.23,1,1,1,-29.14,4.38,-50.70,-38.48,0.00,4.45,4.45,613.16,TARP,DOE-2,137.79,154.46,38.61,115.84,6,1,0,Yes
 Zone Information, 997_OFFICE_1_NORTH PERIMETER,105.0,0.00,0.00,0.00,14.63,-3.92,2.23,1,1,1,1.15,29.14,-50.70,41.71,0.00,4.45,4.45,1853.44,TARP,DOE-2,416.50,425.74,106.43,319.30,6,1,0,Yes
 Zone Information, 997_OFFICE_1_SOUTH PERIMETER,105.0,0.00,0.00,0.00,-14.63,3.92,2.23,1,1,1,-29.14,-1.15,-41.71,50.70,0.00,4.45,4.45,1853.44,TARP,DOE-2,416.50,425.74,106.43,319.30,6,1,0,Yes
 Zone Information, 997_OFFICE_1_WEST PERIMETER,105.0,0.00,0.00,0.00,11.84,44.20,2.23,1,1,1,-4.38,29.14,38.48,50.70,0.00,4.45,4.45,613.16,TARP,DOE-2,137.79,154.46,38.61,115.84,6,1,0,Yes
 Zone Information, 997_OFFICE_2_CORE,105.0,0.00,0.00,0.00,-7.89E-008,-2.94E-007,6.68,1,1,1,-23.54,23.54,-45.10,45.10,4.45,8.90,4.45,9843.68,TARP,DOE-2,2212.02,0.00,0.00,0.00,6,0,0,Yes
 Zone Information, 997_OFFICE_2_EAST PERIMETER,105.0,0.00,0.00,0.00,-11.84,-44.20,6.68,1,1,1,-29.14,4.38,-50.70,-38.48,4.45,8.90,4.45,613.16,TARP,DOE-2,137.79,154.46,38.61,115.84,6,1,0,Yes
 Zone Information, 997_OFFICE_2_NORTH PERIMETER,105.0,0.00,0.00,0.00,14.63,-3.92,6.68,1,1,1,1.15,29.14,-50.70,41.71,4.45,8.90,4.45,1853.44,TARP,DOE-2,416.50,425.74,106.43,319.30,6,1,0,Yes
 Zone Information, 997_OFFICE_2_SOUTH PERIMETER,105.0,0.00,0.00,0.00,-14.63,3.92,6.68,1,1,1,-29.14,-1.15,-41.71,50.70,4.45,8.90,4.45,1853.44,TARP,DOE-2,416.50,425.74,106.43,319.30,6,1,0,Yes
 Zone Information, 997_OFFICE_2_WEST PERIMETER,105.0,0.00,0.00,0.00,11.84,44.20,6.68,1,1,1,-4.38,29.14,38.48,50.70,4.45,8.90,4.45,613.16,TARP,DOE-2,137.79,154.46,38.61,115.84,6,1,0,Yes
 Zone Information, 997_OFFICE_3_CORE,105.0,0.00,0.00,0.00,-7.89E-008,-2.94E-007,11.13,1,1,1,-23.54,23.54,-45.10,45.10,8.90,13.35,4.45,9843.68,TARP,DOE-2,2212.02,0.00,0.00,132.72,6,1,0,Yes
 Zone Information, 997_OFFICE_3_EAST PERIMETER,105.0,0.00,0.00,0.00,-11.84,-44.20,11.13,1,1,1,-29.14,4.38,-50.70,-38.48,8.90,13.35,4.45,613.16,TARP,DOE-2,137.79,154.46,38.61,115.84,6,1,0,Yes
 Zone Information, 997_OFFICE_3_NORTH PERIMETER,105.0,0.00,0.00,0.00,14.63,-3.92,11.13,1,1,1,1.15,29.14,-50.70,41.71,8.90,13.35,4.45,1853.44,TARP,DOE-2,416.50,425.74,106.43,319.30,6,1,0,Yes
 Zone Information, 997_OFFICE_3_SOUTH PERIMETER,105.0,0.00,0.00,0.00,-14.63,3.92,11.13,1,1,1,-29.14,-1.15,-41.71,50.70,8.90,13.35,4.45,1853.44,TARP,DOE-2,416.50,425.74,106.43,319.30,6,1,0,Yes
 Zone Information, 997_OFFICE_3_WEST PERIMETER,105.0,0.00,0.00,0.00,11.84,44.20,11.13,1,1,1,-4.38,29.14,38.48,50.70,8.90,13.35,4.45,613.16,TARP,DOE-2,137.79,154.46,38.61,115.84,6,1,0,Yes
! <Zone Internal Gains/Equipment Information - Nominal>,Zone Name, Floor Area {m2},# Occupants,Area per Occupant {m2/person},Occupant per Area {person/m2},Interior Lighting {W/m2},Electric Load {W/m2},Gas Load {W/m2},Other Load {W/m2},Hot Water Eq {W/m2},Steam Equipment {W/m2},Sum Loads per Area {W/m2},Outdoor Controlled Baseboard Heat
 Zone Internal Gains, 997_OFFICE_1_CORE,2212.02,119.1,18.581,5.382E-002,15.174,8.073,0.000,0.000,0.000,0.000,23.247,No
 Zone Internal Gains, 997_OFFICE_1_EAST PERIMETER,137.79,7.4,18.581,5.382E-002,15.174,8.073,0.000,0.000,0.000,0.000,23.247,No
 Zone Internal Gains, 997_OFFICE_1_NORTH PERIMETER,416.50,22.4,18.581,5.382E-002,15.174,8.073,0.000,0.000,0.000,0.000,23.247,No
 Zone Internal Gains, 997_OFFICE_1_SOUTH PERIMETER,416.50,22.4,18.581,5.382E-002,15.174,8.073,0.000,0.000,0.000,0.000,23.247,No
 Zone Internal Gains, 997_OFFICE_1_WEST PERIMETER,137.79,7.4,18.581,5.382E-002,15.174,8.073,0.000,0.000,0.000,0.000,23.247,No
 Zone Internal Gains, 997_OFFICE_2_CORE,2212.02,119.1,18.581,5.382E-002,15.174,8.073,0.000,0.000,0.000,0.000,23.247,No
 Zone Internal Gains, 997_OFFICE_2_EAST PERIMETER,137.79,7.4,18.581,5.382E-002,15.174,8.073,0.000,0.000,0.000,0.000,23.247,No
 Zone Internal Gains, 997_OFFICE_2_NORTH PERIMETER,416.50,22.4,18.581,5.382E-002,15.174,8.073,0.000,0.000,0.000,0.000,23.247,No
 Zone Internal Gains, 997_OFFICE_2_SOUTH PERIMETER,416.50,22.4,18.581,5.382E-002,15.174,8.073,0.000,0.000,0.000,0.000,23.247,No
 Zone Internal Gains, 997_OFFICE_2_WEST PERIMETER,137.79,7.4,18.581,5.382E-002,15.174,8.073,0.000,0.000,0.000,0.000,23.247,No
 Zone Internal Gains, 997_OFFICE_3_CORE,2212.02,119.1,18.581,5.382E-002,15.174,8.073,0.000,0.000,0.000,0.000,23.247,No
 Zone Internal Gains, 997_OFFICE_3_EAST PERIMETER,137.79,7.4,18.581,5.382E-002,15.174,8.073,0.000,0.000,0.000,0.000,23.247,No
 Zone Internal Gains, 997_OFFICE_3_NORTH PERIMETER,416.50,22.4,18.581,5.382E-002,15.174,8.073,0.000,0.000,0.000,0.000,23.247,No
 Zone Internal Gains, 997_OFFICE_3_SOUTH PERIMETER,416.50,22.4,18.581,5.382E-002,15.174,8.073,0.000,0.000,0.000,0.000,23.247,No
 Zone Internal Gains, 997_OFFICE_3_WEST PERIMETER,137.79,7.4,18.581,5.382E-002,15.174,8.073,0.000,0.000,0.000,0.000,23.247,No
! <People Internal Gains - Nominal>,Name,Schedule Name,Zone Name,Zone Floor Area {m2},# Zone Occupants,Number of People {},People/Floor Area {person/m2},Floor Area per person {m2/person},Fraction Radiant,Fraction Convected,Sensible Fraction Calculation,Activity level,ASHRAE 55 Warnings,Carbon Dioxide Generation Rate,Nominal Minimum Number of People,Nominal Maximum Number of People
 People Internal Gains, 997_OFFICE_1_CORE PNNL_ASSET_RATING_OFFICE_OCCUPANTS,PNNL_ASSET_RATING_OFFICE_OCCUPANCY_SCHEDULE,997_OFFICE_1_CORE,2212.02,119.1,119.1,5.382E-002,18.581,0.300,0.700,0.500,PNNL_ASSET_RATING_OFFICE_ACTIVITY_SCHEDULE,No,3.8200E-008,0,119
 People Internal Gains, 997_OFFICE_1_EAST PERIMETER PNNL_ASSET_RATING_OFFICE_OCCUPANTS,PNNL_ASSET_RATING_OFFICE_OCCUPANCY_SCHEDULE,997_OFFICE_1_EAST PERIMETER,137.79,7.4,7.4,5.382E-002,18.581,0.300,0.700,0.500,PNNL_ASSET_RATING_OFFICE_ACTIVITY_SCHEDULE,No,3.8200E-008,0,7
 People Internal Gains, 997_OFFICE_1_NORTH PERIMETER PNNL_ASSET_RATING_OFFICE_OCCUPANTS,PNNL_ASSET_RATING_OFFICE_OCCUPANCY_SCHEDULE,997_OFFICE_1_NORTH PERIMETER,416.50,22.4,22.4,5.382E-002,18.581,0.300,0.700,0.500,PNNL_ASSET_RATING_OFFICE_ACTIVITY_SCHEDULE,No,3.8200E-008,0,22
 People Internal Gains, 997_OFFICE_1_SOUTH PERIMETER PNNL_ASSET_RATING_OFFICE_OCCUPANTS,PNNL_ASSET_RATING_OFFICE_OCCUPANCY_SCHEDULE,997_OFFICE_1_SOUTH PERIMETER,416.50,22.4,22.4,5.382E-002,18.581,0.300,0.700,0.500,PNNL_ASSET_RATING_OFFICE_ACTIVITY_SCHEDULE,No,3.8200E-008,0,22
 People Internal Gains, 997_OFFICE_1_WEST PERIMETER PNNL_ASSET_RATING_OFFICE_OCCUPANTS,PNNL_ASSET_RATING_OFFICE_OCCUPANCY_SCHEDULE,997_OFFICE_1_WEST PERIMETER,137.79,7.4,7.4,5.382E-002,18.581,0.300,0.700,0.500,PNNL_ASSET_RATING_OFFICE_ACTIVITY_SCHEDULE,No,3.8200E-008,0,7
 People Internal Gains, 997_OFFICE_2_CORE PNNL_ASSET_RATING_OFFICE_OCCUPANTS,PNNL_ASSET_RATING_OFFICE_OCCUPANCY_SCHEDULE,997_OFFICE_2_CORE,2212.02,119.1,119.1,5.382E-002,18.581,0.300,0.700,0.500,PNNL_ASSET_RATING_OFFICE_ACTIVITY_SCHEDULE,No,3.8200E-008,0,119
 People Internal Gains, 997_OFFICE_2_EAST PERIMETER PNNL_ASSET_RATING_OFFICE_OCCUPANTS,PNNL_ASSET_RATING_OFFICE_OCCUPANCY_SCHEDULE,997_OFFICE_2_EAST PERIMETER,137.79,7.4,7.4,5.382E-002,18.581,0.300,0.700,0.500,PNNL_ASSET_RATING_OFFICE_ACTIVITY_SCHEDULE,No,3.8200E-008,0,7
 People Internal Gains, 997_OFFICE_2_NORTH PERIMETER PNNL_ASSET_RATING_OFFICE_OCCUPANTS,PNNL_ASSET_RATING_OFFICE_OCCUPANCY_SCHEDULE,997_OFFICE_2_NORTH PERIMETER,416.50,22.4,22.4,5.382E-002,18.581,0.300,0.700,0.500,PNNL_ASSET_RATING_OFFICE_ACTIVITY_SCHEDULE,No,3.8200E-008,0,22
 People Internal Gains, 997_OFFICE_2_SOUTH PERIMETER PNNL_ASSET_RATING_OFFICE_OCCUPANTS,PNNL_ASSET_RATING_OFFICE_OCCUPANCY_SCHEDULE,997_OFFICE_2_SOUTH PERIMETER,416.50,22.4,22.4,5.382E-002,18.581,0.300,0.700,0.500,PNNL_ASSET_RATING_OFFICE_ACTIVITY_SCHEDULE,No,3.8200E-008,0,22
 People Internal Gains, 997_OFFICE_2_WEST PERIMETER PNNL_ASSET_RATING_OFFICE_OCCUPANTS,PNNL_ASSET_RATING_OFFICE_OCCUPANCY_SCHEDULE,997_OFFICE_2_WEST PERIMETER,137.79,7.4,7.4,5.382E-002,18.581,0.300,0.700,0.500,PNNL_ASSET_RATING_OFFICE_ACTIVITY_SCHEDULE,No,3.8200E-008,0,7
 People Internal Gains, 997_OFFICE_3_CORE PNNL_ASSET_RATING_OFFICE_OCCUPANTS,PNNL_ASSET_RATING_OFFICE_OCCUPANCY_SCHEDULE,997_OFFICE_3_CORE,2212.02,119.1,119.1,5.382E-002,18.581,0.300,0.700,0.500,PNNL_ASSET_RATING_OFFICE_ACTIVITY_SCHEDULE,No,3.8200E-008,0,119
 People Internal Gains, 997_OFFICE_3_EAST PERIMETER PNNL_ASSET_RATING_OFFICE_OCCUPANTS,PNNL_ASSET_RATING_OFFICE_OCCUPANCY_SCHEDULE,997_OFFICE_3_EAST PERIMETER,137.79,7.4,7.4,5.382E-002,18.581,0.300,0.700,0.500,PNNL_ASSET_RATING_OFFICE_ACTIVITY_SCHEDULE,No,3.8200E-008,0,7
 People Internal Gains, 997_OFFICE_3_NORTH PERIMETER PNNL_ASSET_RATING_OFFICE_OCCUPANTS,PNNL_ASSET_RATING_OFFICE_OCCUPANCY_SCHEDULE,997_OFFICE_3_NORTH PERIMETER,416.50,22.4,22.4,5.382E-002,18.581,0.300,0.700,0.500,PNNL_ASSET_RATING_OFFICE_ACTIVITY_SCHEDULE,No,3.8200E-008,0,22
 People Internal Gains, 997_OFFICE_3_SOUTH PERIMETER PNNL_ASSET_RATING_OFFICE_OCCUPANTS,PNNL_ASSET_RATING_OFFICE_OCCUPANCY_SCHEDULE,997_OFFICE_3_SOUTH PERIMETER,416.50,22.4,22.4,5.382E-002,18.581,0.300,0.700,0.500,PNNL_ASSET_RATING_OFFICE_ACTIVITY_SCHEDULE,No,3.8200E-008,0,22
 People Internal Gains, 997_OFFICE_3_WEST PERIMETER PNNL_ASSET_RATING_OFFICE_OCCUPANTS,PNNL_ASSET_RATING_OFFICE_OCCUPANCY_SCHEDULE,997_OFFICE_3_WEST PERIMETER,137.79,7.4,7.4,5.382E-002,18.581,0.300,0.700,0.500,PNNL_ASSET_RATING_OFFICE_ACTIVITY_SCHEDULE,No,3.8200E-008,0,7
! <Lights Internal Gains - Nominal>,Name,Schedule Name,Zone Name,Zone Floor Area {m2},# Zone Occupants,Lighting Level {W},Lights/Floor Area {W/m2},Lights per person {W/person},Fraction Return Air,Fraction Radiant,Fraction Short Wave,Fraction Convected,Fraction Replaceable,End-Use Category,Nominal Minimum Lighting Level {W},Nominal Maximum Lighting Level {W}
 Lights Internal Gains, 997_OFFICE_1_CORE PNNL_ASSET_RATING_OFFICE_LIGHTS,PNNL_ASSET_RATING_OFFICE_LIGHTING_SCHEDULE,997_OFFICE_1_CORE,2212.02,119.1,33565.976,15.174,281.948,0.000,0.370,0.180,0.450,1.000,General,0.000,33565.976
 Lights Internal Gains, 997_OFFICE_1_EAST PERIMETER PNNL_ASSET_RATING_OFFICE_LIGHTS,PNNL_ASSET_RATING_OFFICE_LIGHTING_SCHEDULE,997_OFFICE_1_EAST PERIMETER,137.79,7.4,2090.823,15.174,281.948,0.000,0.370,0.180,0.450,1.000,General,0.000,2090.823
 Lights Internal Gains, 997_OFFICE_1_NORTH PERIMETER PNNL_ASSET_RATING_OFFICE_LIGHTS,PNNL_ASSET_RATING_OFFICE_LIGHTING_SCHEDULE,997_OFFICE_1_NORTH PERIMETER,416.50,22.4,6320.049,15.174,281.948,0.000,0.370,0.180,0.450,1.000,General,0.000,6320.049
 Lights Internal Gains, 997_OFFICE_1_SOUTH PERIMETER PNNL_ASSET_RATING_OFFICE_LIGHTS,PNNL_ASSET_RATING_OFFICE_LIGHTING_SCHEDULE,997_OFFICE_1_SOUTH PERIMETER,416.50,22.4,6320.049,15.174,281.948,0.000,0.370,0.180,0.450,1.000,General,0.000,6320.049
 Lights Internal Gains, 997_OFFICE_1_WEST PERIMETER PNNL_ASSET_RATING_OFFICE_LIGHTS,PNNL_ASSET_RATING_OFFICE_LIGHTING_SCHEDULE,997_OFFICE_1_WEST PERIMETER,137.79,7.4,2090.823,15.174,281.948,0.000,0.370,0.180,0.450,1.000,General,0.000,2090.823
 Lights Internal Gains, 997_OFFICE_2_CORE PNNL_ASSET_RATING_OFFICE_LIGHTS,PNNL_ASSET_RATING_OFFICE_LIGHTING_SCHEDULE,997_OFFICE_2_CORE,2212.02,119.1,33565.976,15.174,281.948,0.000,0.370,0.180,0.450,1.000,General,0.000,33565.976
 Lights Internal Gains, 997_OFFICE_2_EAST PERIMETER PNNL_ASSET_RATING_OFFICE_LIGHTS,PNNL_ASSET_RATING_OFFICE_LIGHTING_SCHEDULE,997_OFFICE_2_EAST PERIMETER,137.79,7.4,2090.823,15.174,281.948,0.000,0.370,0.180,0.450,1.000,General,0.000,2090.823
 Lights Internal Gains, 997_OFFICE_2_NORTH PERIMETER PNNL_ASSET_RATING_OFFICE_LIGHTS,PNNL_ASSET_RATING_OFFICE_LIGHTING_SCHEDULE,997_OFFICE_2_NORTH PERIMETER,416.50,22.4,6320.049,15.174,281.948,0.000,0.370,0.180,0.450,1.000,General,0.000,6320.049
 Lights Internal Gains, 997_OFFICE_2_SOUTH PERIMETER PNNL_ASSET_RATING_OFFICE_LIGHTS,PNNL_ASSET_RATING_OFFICE_LIGHTING_SCHEDULE,997_OFFICE_2_SOUTH PERIMETER,416.50,22.4,6320.049,15.174,281.948,0.000,0.370,0.180,0.450,1.000,General,0.000,6320.049
 Lights Internal Gains, 997_OFFICE_2_WEST PERIMETER PNNL_ASSET_RATING_OFFICE_LIGHTS,PNNL_ASSET_RATING_OFFICE_LIGHTING_SCHEDULE,997_OFFICE_2_WEST PERIMETER,137.79,7.4,2090.823,15.174,281.948,0.000,0.370,0.180,0.450,1.000,General,0.000,2090.823
 Lights Internal Gains, 997_OFFICE_3_CORE PNNL_ASSET_RATING_OFFICE_LIGHTS,PNNL_ASSET_RATING_OFFICE_LIGHTING_SCHEDULE,997_OFFICE_3_CORE,2212.02,119.1,33565.976,15.174,281.948,0.000,0.370,0.180,0.450,1.000,General,0.000,33565.976
 Lights Internal Gains, 997_OFFICE_3_EAST PERIMETER PNNL_ASSET_RATING_OFFICE_LIGHTS,PNNL_ASSET_RATING_OFFICE_LIGHTING_SCHEDULE,997_OFFICE_3_EAST PERIMETER,137.79,7.4,2090.823,15.174,281.948,0.000,0.370,0.180,0.450,1.000,General,0.000,2090.823
 Lights Internal Gains, 997_OFFICE_3_NORTH PERIMETER PNNL_ASSET_RATING_OFFICE_LIGHTS,PNNL_ASSET_RATING_OFFICE_LIGHTING_SCHEDULE,997_OFFICE_3_NORTH PERIMETER,416.50,22.4,6320.049,15.174,281.948,0.000,0.370,0.180,0.450,1.000,General,0.000,6320.049
 Lights Internal Gains, 997_OFFICE_3_SOUTH PERIMETER PNNL_ASSET_RATING_OFFICE_LIGHTS,PNNL_ASSET_RATING_OFFICE_LIGHTING_SCHEDULE,997_OFFICE_3_SOUTH PERIMETER,416.50,22.4,6320.049,15.174,281.948,0.000,0.370,0.180,0.450,1.000,General,0.000,6320.049
 Lights Internal Gains, 997_OFFICE_3_WEST PERIMETER PNNL_ASSET_RATING_OFFICE_LIGHTS,PNNL_ASSET_RATING_OFFICE_LIGHTING_SCHEDULE,997_OFFICE_3_WEST PERIMETER,137.79,7.4,2090.823,15.174,281.948,0.000,0.370,0.180,0.450,1.000,General,0.000,2090.823
! <ElectricEquipment Internal Gains - Nominal>,Name,Schedule Name,Zone Name,Zone Floor Area {m2},# Zone Occupants,Equipment Level {W},Equipment/Floor Area {W/m2},Equipment per person {W/person},Fraction Latent,Fraction Radiant,Fraction Lost,Fraction Convected,End-Use SubCategory,Nominal Minimum Equipment Level {W},Nominal Maximum Equipment Level {W}
 ElectricEquipment Internal Gains, 997_OFFICE_1_CORE PNNL_ASSET_RATING_OFFICE_PLUG_LOADS,PNNL_ASSET_RATING_OFFICE_PLUG_AND_PROCESS_SCHEDULE,997_OFFICE_1_CORE,2212.02,119.1,17857.512,8.073,150.000,0.000,0.300,0.000,0.700,General,0.000,17857.512
 ElectricEquipment Internal Gains, 997_OFFICE_1_EAST PERIMETER PNNL_ASSET_RATING_OFFICE_PLUG_LOADS,PNNL_ASSET_RATING_OFFICE_PLUG_AND_PROCESS_SCHEDULE,997_OFFICE_1_EAST PERIMETER,137.79,7.4,1112.344,8.073,150.000,0.000,0.300,0.000,0.700,General,0.000,1112.344
 ElectricEquipment Internal Gains, 997_OFFICE_1_NORTH PERIMETER PNNL_ASSET_RATING_OFFICE_PLUG_LOADS,PNNL_ASSET_RATING_OFFICE_PLUG_AND_PROCESS_SCHEDULE,997_OFFICE_1_NORTH PERIMETER,416.50,22.4,3362.344,8.073,150.000,0.000,0.300,0.000,0.700,General,0.000,3362.344
 ElectricEquipment Internal Gains, 997_OFFICE_1_SOUTH PERIMETER PNNL_ASSET_RATING_OFFICE_PLUG_LOADS,PNNL_ASSET_RATING_OFFICE_PLUG_AND_PROCESS_SCHEDULE,997_OFFICE_1_SOUTH PERIMETER,416.50,22.4,3362.344,8.073,150.000,0.000,0.300,0.000,0.700,General,0.000,3362.344
 ElectricEquipment Internal Gains, 997_OFFICE_1_WEST PERIMETER PNNL_ASSET_RATING_OFFICE_PLUG_LOADS,PNNL_ASSET_RATING_OFFICE_PLUG_AND_PROCESS_SCHEDULE,997_OFFICE_1_WEST PERIMETER,137.79,7.4,1112.344,8.073,150.000,0.000,0.300,0.000,0.700,General,0.000,1112.344
 ElectricEquipment Internal Gains, 997_OFFICE_2_CORE PNNL_ASSET_RATING_OFFICE_PLUG_LOADS,PNNL_ASSET_RATING_OFFICE_PLUG_AND_PROCESS_SCHEDULE,997_OFFICE_2_CORE,2212.02,119.1,17857.512,8.073,150.000,0.000,0.300,0.000,0.700,General,0.000,17857.512
 ElectricEquipment Internal Gains, 997_OFFICE_2_EAST PERIMETER PNNL_ASSET_RATING_OFFICE_PLUG_LOADS,PNNL_ASSET_RATING_OFFICE_PLUG_AND_PROCESS_SCHEDULE,997_OFFICE_2_EAST PERIMETER,137.79,7.4,1112.344,8.073,150.000,0.000,0.300,0.000,0.700,General,0.000,1112.344
 ElectricEquipment Internal Gains, 997_OFFICE_2_NORTH PERIMETER PNNL_ASSET_RATING_OFFICE_PLUG_LOADS,PNNL_ASSET_RATING_OFFICE_PLUG_AND_PROCESS_SCHEDULE,997_OFFICE_2_NORTH PERIMETER,416.50,22.4,3362.344,8.073,150.000,0.000,0.300,0.000,0.700,General,0.000,3362.344
 ElectricEquipment Internal Gains, 997_OFFICE_2_SOUTH PERIMETER PNNL_ASSET_RATING_OFFICE_PLUG_LOADS,PNNL_ASSET_RATING_OFFICE_PLUG_AND_PROCESS_SCHEDULE,997_OFFICE_2_SOUTH PERIMETER,416.50,22.4,3362.344,8.073,150.000,0.000,0.300,0.000,0.700,General,0.000,3362.344
 ElectricEquipment Internal Gains, 997_OFFICE_2_WEST PERIMETER PNNL_ASSET_RATING_OFFICE_PLUG_LOADS,PNNL_ASSET_RATING_OFFICE_PLUG_AND_PROCESS_SCHEDULE,997_OFFICE_2_WEST PERIMETER,137.79,7.4,1112.344,8.073,150.000,0.000,0.300,0.000,0.700,General,0.000,1112.344
 ElectricEquipment Internal Gains, 997_OFFICE_3_CORE PNNL_ASSET_RATING_OFFICE_PLUG_LOADS,PNNL_ASSET_RATING_OFFICE_PLUG_AND_PROCESS_SCHEDULE,997_OFFICE_3_CORE,2212.02,119.1,17857.512,8.073,150.000,0.000,0.300,0.000,0.700,General,0.000,17857.512
 ElectricEquipment Internal Gains, 997_OFFICE_3_EAST PERIMETER PNNL_ASSET_RATING_OFFICE_PLUG_LOADS,PNNL_ASSET_RATING_OFFICE_PLUG_AND_PROCESS_SCHEDULE,997_OFFICE_3_EAST PERIMETER,137.79,7.4,1112.344,8.073,150.000,0.000,0.300,0.000,0.700,General,0.000,1112.344
 ElectricEquipment Internal Gains, 997_OFFICE_3_NORTH PERIMETER PNNL_ASSET_RATING_OFFICE_PLUG_LOADS,PNNL_ASSET_RATING_OFFICE_PLUG_AND_PROCESS_SCHEDULE,997_OFFICE_3_NORTH PERIMETER,416.50,22.4,3362.344,8.073,150.000,0.000,0.300,0.000,0.700,General,0.000,3362.344
 ElectricEquipment Internal Gains, 997_OFFICE_3_SOUTH PERIMETER PNNL_ASSET_RATING_OFFICE_PLUG_LOADS,PNNL_ASSET_RATING_OFFICE_PLUG_AND_PROCESS_SCHEDULE,997_OFFICE_3_SOUTH PERIMETER,416.50,22.4,3362.344,8.073,150.000,0.000,0.300,0.000,0.700,General,0.000,3362.344
 ElectricEquipment Internal Gains, 997_OFFICE_3_WEST PERIMETER PNNL_ASSET_RATING_OFFICE_PLUG_LOADS,PNNL_ASSET_RATING_OFFICE_PLUG_AND_PROCESS_SCHEDULE,997_OFFICE_3_WEST PERIMETER,137.79,7.4,1112.344,8.073,150.000,0.000,0.300,0.000,0.700,General,0.000,1112.344
! <Shadowing/Sun Position Calculations> [Annual Simulations], Calculation Method, Value {days}, Allowable Number Figures in Shadow Overlap {}, Polygon Clipping Algorithm, Sky Diffuse Modeling Algorithm
Shadowing/Sun Position Calculations,AverageOverDaysInFrequency,20,15000,SutherlandHodgman,SimpleSkyDiffuseModeling
! <Water Heater Information>,Type,Name,Volume {m3},Maximum Capacity {W},Standard Rated Recovery Efficiency, Standard Rated Energy Factor
! <Infiltration Airflow Stats - Nominal>,Name,Schedule Name,Zone Name, Zone Floor Area {m2}, # Zone Occupants,Design Volume Flow Rate {m3/s},Volume Flow Rate/Floor Area {m3/s/m2},Volume Flow Rate/Exterior Surface Area {m3/s/m2},ACH - Air Changes per Hour,Equation A - Constant Term Coefficient {},Equation B - Temperature Term Coefficient {1/C},Equation C - Velocity Term Coefficient {s/m}, Equation D - Velocity Squared Term Coefficient {s2/m2}
 ZoneInfiltration Airflow Stats, 997_OFFICE_1_CORE PNNL_ASSET_RATING_OFFICE_INFILTRATION,PNNL_ASSET_RATING_OFFICE_INFILTRATION_SCHEDULE,997_OFFICE_1_CORE,2212.02,119.1,0.000,0.000,N/A,0.000,1.000,0.000,0.000,0.000
 ZoneInfiltration Airflow Stats, 997_OFFICE_1_EAST PERIMETER PNNL_ASSET_RATING_OFFICE_INFILTRATION,PNNL_ASSET_RATING_OFFICE_INFILTRATION_SCHEDULE,997_OFFICE_1_EAST PERIMETER,137.79,7.4,0.140,1.015E-003,9.052E-004,0.821,1.000,0.000,0.000,0.000
 ZoneInfiltration Airflow Stats, 997_OFFICE_1_NORTH PERIMETER PNNL_ASSET_RATING_OFFICE_INFILTRATION,PNNL_ASSET_RATING_OFFICE_INFILTRATION_SCHEDULE,997_OFFICE_1_NORTH PERIMETER,416.50,22.4,0.385,9.253E-004,9.052E-004,0.749,1.000,0.000,0.000,0.000
 ZoneInfiltration Airflow Stats, 997_OFFICE_1_SOUTH PERIMETER PNNL_ASSET_RATING_OFFICE_INFILTRATION,PNNL_ASSET_RATING_OFFICE_INFILTRATION_SCHEDULE,997_OFFICE_1_SOUTH PERIMETER,416.50,22.4,0.385,9.253E-004,9.052E-004,0.749,1.000,0.000,0.000,0.000
 ZoneInfiltration Airflow Stats, 997_OFFICE_1_WEST PERIMETER PNNL_ASSET_RATING_OFFICE_INFILTRATION,PNNL_ASSET_RATING_OFFICE_INFILTRATION_SCHEDULE,997_OFFICE_1_WEST PERIMETER,137.79,7.4,0.140,1.015E-003,9.052E-004,0.821,1.000,0.000,0.000,0.000
 ZoneInfiltration Airflow Stats, 997_OFFICE_2_CORE PNNL_ASSET_RATING_OFFICE_INFILTRATION,PNNL_ASSET_RATING_OFFICE_INFILTRATION_SCHEDULE,997_OFFICE_2_CORE,2212.02,119.1,0.000,0.000,N/A,0.000,1.000,0.000,0.000,0.000
 ZoneInfiltration Airflow Stats, 997_OFFICE_2_EAST PERIMETER PNNL_ASSET_RATING_OFFICE_INFILTRATION,PNNL_ASSET_RATING_OFFICE_INFILTRATION_SCHEDULE,997_OFFICE_2_EAST PERIMETER,137.79,7.4,0.140,1.015E-003,9.052E-004,0.821,1.000,0.000,0.000,0.000
 ZoneInfiltration Airflow Stats, 997_OFFICE_2_NORTH PERIMETER PNNL_ASSET_RATING_OFFICE_INFILTRATION,PNNL_ASSET_RATING_OFFICE_INFILTRATION_SCHEDULE,997_OFFICE_2_NORTH PERIMETER,416.50,22.4,0.385,9.253E-004,9.052E-004,0.749,1.000,0.000,0.000,0.000
 ZoneInfiltration Airflow Stats, 997_OFFICE_2_SOUTH PERIMETER PNNL_ASSET_RATING_OFFICE_INFILTRATION,PNNL_ASSET_RATING_OFFICE_INFILTRATION_SCHEDULE,997_OFFICE_2_SOUTH PERIMETER,416.50,22.4,0.385,9.253E-004,9.052E-004,0.749,1.000,0.000,0.000,0.000
 ZoneInfiltration Airflow Stats, 997_OFFICE_2_WEST PERIMETER PNNL_ASSET_RATING_OFFICE_INFILTRATION,PNNL_ASSET_RATING_OFFICE_INFILTRATION_SCHEDULE,997_OFFICE_2_WEST PERIMETER,137.79,7.4,0.140,1.015E-003,9.052E-004,0.821,1.000,0.000,0.000,0.000
 ZoneInfiltration Airflow Stats, 997_OFFICE_3_CORE PNNL_ASSET_RATING_OFFICE_INFILTRATION,PNNL_ASSET_RATING_OFFICE_INFILTRATION_SCHEDULE,997_OFFICE_3_CORE,2212.02,119.1,2.002,9.052E-004,9.052E-004,0.732,1.000,0.000,0.000,0.000
 ZoneInfiltration Airflow Stats, 997_OFFICE_3_EAST PERIMETER PNNL_ASSET_RATING_OFFICE_INFILTRATION,PNNL_ASSET_RATING_OFFICE_INFILTRATION_SCHEDULE,997_OFFICE_3_EAST PERIMETER,137.79,7.4,0.265,1.920E-003,9.052E-004,1.553,1.000,0.000,0.000,0.000
 ZoneInfiltration Airflow Stats, 997_OFFICE_3_NORTH PERIMETER PNNL_ASSET_RATING_OFFICE_INFILTRATION,PNNL_ASSET_RATING_OFFICE_INFILTRATION_SCHEDULE,997_OFFICE_3_NORTH PERIMETER,416.50,22.4,0.762,1.831E-003,9.052E-004,1.481,1.000,0.000,0.000,0.000
 ZoneInfiltration Airflow Stats, 997_OFFICE_3_SOUTH PERIMETER PNNL_ASSET_RATING_OFFICE_INFILTRATION,PNNL_ASSET_RATING_OFFICE_INFILTRATION_SCHEDULE,997_OFFICE_3_SOUTH PERIMETER,416.50,22.4,0.762,1.831E-003,9.052E-004,1.481,1.000,0.000,0.000,0.000
 ZoneInfiltration Airflow Stats, 997_OFFICE_3_WEST PERIMETER PNNL_ASSET_RATING_OFFICE_INFILTRATION,PNNL_ASSET_RATING_OFFICE_INFILTRATION_SCHEDULE,997_OFFICE_3_WEST PERIMETER,137.79,7.4,0.265,1.920E-003,9.052E-004,1.553,1.000,0.000,0.000,0.000
! <AirFlow Model>, Simple
 AirFlow Model, Simple
! <RoomAir Model>, Zone Name, Mixing/Mundt/UCSDDV/UCSDCV/UCSDUFI/UCSDUFE/User Defined
RoomAir Model,997_OFFICE_1_CORE,Mixing/Well-Stirred
RoomAir Model,997_OFFICE_1_EAST PERIMETER,Mixing/Well-Stirred
RoomAir Model,997_OFFICE_1_NORTH PERIMETER,Mixing/Well-Stirred
RoomAir Model,997_OFFICE_1_SOUTH PERIMETER,Mixing/Well-Stirred
RoomAir Model,997_OFFICE_1_WEST PERIMETER,Mixing/Well-Stirred
RoomAir Model,997_OFFICE_2_CORE,Mixing/Well-Stirred
RoomAir Model,997_OFFICE_2_EAST PERIMETER,Mixing/Well-Stirred
RoomAir Model,997_OFFICE_2_NORTH PERIMETER,Mixing/Well-Stirred
RoomAir Model,997_OFFICE_2_SOUTH PERIMETER,Mixing/Well-Stirred
RoomAir Model,997_OFFICE_2_WEST PERIMETER,Mixing/Well-Stirred
RoomAir Model,997_OFFICE_3_CORE,Mixing/Well-Stirred
RoomAir Model,997_OFFICE_3_EAST PERIMETER,Mixing/Well-Stirred
RoomAir Model,997_OFFICE_3_NORTH PERIMETER,Mixing/Well-Stirred
RoomAir Model,997_OFFICE_3_SOUTH PERIMETER,Mixing/Well-Stirred
RoomAir Model,997_OFFICE_3_WEST PERIMETER,Mixing/Well-Stirred
! <AirflowNetwork Model:Control>, No Multizone or Distribution/Multizone with Distribution/Multizone without Distribution/Multizone with Distribution only during Fan Operation
AirflowNetwork Model:Control,NoMultizoneOrDistribution
! <Zone Volume Capacitance Multiplier>, Sensible Heat Capacity Multiplier, Moisture Capacity Multiplier, Carbon Dioxide Capacity Multiplier, Generic Contaminant Capacity Multiplier
Zone Volume Capacitance Multiplier,   1.000 ,   1.000,   1.000,   1.000
! <Load Timesteps in Zone Design Calculation Averaging Window>, Value
 Load Timesteps in Zone Design Calculation Averaging Window,    6
! <Heating Sizing Factor Information>, Sizing Factor ID, Value
 Heating Sizing Factor Information, Global,   1.2500    
 Heating Sizing Factor Information, Zone 997_OFFICE_1_CORE,   1.2500    
 Heating Sizing Factor Information, Zone 997_OFFICE_1_EAST PERIMETER,   1.2500    
 Heating Sizing Factor Information, Zone 997_OFFICE_1_NORTH PERIMETER,   1.2500    
 Heating Sizing Factor Information, Zone 997_OFFICE_1_SOUTH PERIMETER,   1.2500    
 Heating Sizing Factor Information, Zone 997_OFFICE_1_WEST PERIMETER,   1.2500    
 Heating Sizing Factor Information, Zone 997_OFFICE_2_CORE,   1.2500    
 Heating Sizing Factor Information, Zone 997_OFFICE_2_EAST PERIMETER,   1.2500    
 Heating Sizing Factor Information, Zone 997_OFFICE_2_NORTH PERIMETER,   1.2500    
 Heating Sizing Factor Information, Zone 997_OFFICE_2_SOUTH PERIMETER,   1.2500    
 Heating Sizing Factor Information, Zone 997_OFFICE_2_WEST PERIMETER,   1.2500    
 Heating Sizing Factor Information, Zone 997_OFFICE_3_CORE,   1.2500    
 Heating Sizing Factor Information, Zone 997_OFFICE_3_EAST PERIMETER,   1.2500    
 Heating Sizing Factor Information, Zone 997_OFFICE_3_NORTH PERIMETER,   1.2500    
 Heating Sizing Factor Information, Zone 997_OFFICE_3_SOUTH PERIMETER,   1.2500    
 Heating Sizing Factor Information, Zone 997_OFFICE_3_WEST PERIMETER,   1.2500    
! <Cooling Sizing Factor Information>, Sizing Factor ID, Value
 Cooling Sizing Factor Information, Global,   1.1500    
 Cooling Sizing Factor Information, Zone 997_OFFICE_1_CORE,   1.1500    
 Cooling Sizing Factor Information, Zone 997_OFFICE_1_EAST PERIMETER,   1.1500    
 Cooling Sizing Factor Information, Zone 997_OFFICE_1_NORTH PERIMETER,   1.1500    
 Cooling Sizing Factor Information, Zone 997_OFFICE_1_SOUTH PERIMETER,   1.1500    
 Cooling Sizing Factor Information, Zone 997_OFFICE_1_WEST PERIMETER,   1.1500    
 Cooling Sizing Factor Information, Zone 997_OFFICE_2_CORE,   1.1500    
 Cooling Sizing Factor Information, Zone 997_OFFICE_2_EAST PERIMETER,   1.1500    
 Cooling Sizing Factor Information, Zone 997_OFFICE_2_NORTH PERIMETER,   1.1500    
 Cooling Sizing Factor Information, Zone 997_OFFICE_2_SOUTH PERIMETER,   1.1500    
 Cooling Sizing Factor Information, Zone 997_OFFICE_2_WEST PERIMETER,   1.1500    
 Cooling Sizing Factor Information, Zone 997_OFFICE_3_CORE,   1.1500    
 Cooling Sizing Factor Information, Zone 997_OFFICE_3_EAST PERIMETER,   1.1500    
 Cooling Sizing Factor Information, Zone 997_OFFICE_3_NORTH PERIMETER,   1.1500    
 Cooling Sizing Factor Information, Zone 997_OFFICE_3_SOUTH PERIMETER,   1.1500    
 Cooling Sizing Factor Information, Zone 997_OFFICE_3_WEST PERIMETER,   1.1500    
! <Zone Sizing Information>, Zone Name, Load Type, Calc Des Load {W}, User Des Load {W}, Calc Des Air Flow Rate {m3/s}, User Des Air Flow Rate {m3/s}, Design Day Name, Date/Time of Peak, Temperature at Peak {C}, Humidity Ratio at Peak {kgWater/kgDryAir}, Floor Area {m2}, # Occupants, Calc Outdoor Air Flow Rate {m3/s}, Calc DOAS Heat Addition Rate {W}
 Zone Sizing Information, 997_OFFICE_1_CORE, Cooling, 69461.33278, 79880.53270, 5.71492, 6.57215, CHICAGO OHARE INTL AP ANN CLG .4% CONDNS DB=>MWB, 7/21 08:00:00, 25.53000, 1.49611E-002, 2212.02283, 119.05007, 0.95515, 0.00000
 Zone Sizing Information, 997_OFFICE_1_CORE, Heating, 27430.86529, 34288.58161, 1.17823, 1.47279, WILLOW GROVE NAS ANN HTG 99.6% CONDNS DB, 1/21 08:00:00, -12.10000, 1.34103E-003, 2212.02283, 119.05007, 0.95515, 0.00000
 Zone Sizing Information, 997_OFFICE_1_EAST PERIMETER, Cooling, 8898.36204, 10233.11635, 0.74160, 0.85284, WILLOW GROVE NAS ANN CLG .4% CONDNS DB=>MWB, 7/21 14:40:00, 33.70000, 1.48819E-002, 137.78682, 7.41562, 5.94963E-002, 0.00000
 Zone Sizing Information, 997_OFFICE_1_EAST PERIMETER, Heating, 19691.20674, 24614.00842, 0.86399, 1.07999, CHICAGO OHARE INTL AP ANN HTG 99.6% CONDNS DB, 1/21 19:00:00, -20.00000, 6.49857E-004, 137.78682, 7.41562, 5.94963E-002, 0.00000
 Zone Sizing Information, 997_OFFICE_1_NORTH PERIMETER, Cooling, 37987.83528, 43686.01057, 3.16595, 3.64084, CHICAGO OHARE INTL AP ANN CLG .4% CONDNS DB=>MWB, 7/21 09:00:00, 27.52500, 1.49611E-002, 416.49594, 22.41562, 0.17984, 0.00000
 Zone Sizing Information, 997_OFFICE_1_NORTH PERIMETER, Heating, 53380.97931, 66726.22414, 2.34227, 2.92783, CHICAGO OHARE INTL AP ANN HTG 99.6% CONDNS DB, 1/21 19:00:00, -20.00000, 6.49857E-004, 416.49594, 22.41562, 0.17984, 0.00000
 Zone Sizing Information, 997_OFFICE_1_SOUTH PERIMETER, Cooling, 41608.90362, 47850.23917, 3.46772, 3.98788, CHICAGO OHARE INTL AP ANN CLG .4% CONDNS DB=>MWB, 7/21 17:20:00, 31.48000, 1.49611E-002, 416.49594, 22.41562, 0.17984, 0.00000
 Zone Sizing Information, 997_OFFICE_1_SOUTH PERIMETER, Heating, 53948.32788, 67435.40985, 2.36716, 2.95895, CHICAGO OHARE INTL AP ANN HTG 99.6% CONDNS DB, 1/21 19:00:00, -20.00000, 6.49857E-004, 416.49594, 22.41562, 0.17984, 0.00000
 Zone Sizing Information, 997_OFFICE_1_WEST PERIMETER, Cooling, 7827.34609, 9001.44800, 0.65234, 0.75020, WILLOW GROVE NAS ANN CLG .4% CONDNS DB=>MWB, 7/21 15:00:00, 33.70000, 1.48819E-002, 137.78682, 7.41562, 5.94963E-002, 0.00000
 Zone Sizing Information, 997_OFFICE_1_WEST PERIMETER, Heating, 19254.50067, 24068.12583, 0.84483, 1.05604, CHICAGO OHARE INTL AP ANN HTG 99.6% CONDNS DB, 1/21 19:00:00, -20.00000, 6.49857E-004, 137.78682, 7.41562, 5.94963E-002, 0.00000
 Zone Sizing Information, 997_OFFICE_2_CORE, Cooling, 78105.93329, 89821.82329, 6.50881, 7.48513, CHICAGO OHARE INTL AP ANN CLG .4% CONDNS DB=>MWB, 7/21 17:00:00, 31.83000, 1.49611E-002, 2212.02283, 119.05007, 0.95515, 0.00000
 Zone Sizing Information, 997_OFFICE_2_CORE, Heating, 34113.47140, 42641.83925, 1.47117, 1.83896, WILLOW GROVE NAS ANN HTG 99.6% CONDNS DB, 1/21 08:00:00, -12.10000, 1.34103E-003, 2212.02283, 119.05007, 0.95515, 0.00000
 Zone Sizing Information, 997_OFFICE_2_EAST PERIMETER, Cooling, 10341.51311, 11892.74008, 0.86188, 0.99116, WILLOW GROVE NAS ANN CLG .4% CONDNS DB=>MWB, 7/21 14:20:00, 33.70000, 1.48819E-002, 137.78682, 7.41562, 5.94963E-002, 0.00000
 Zone Sizing Information, 997_OFFICE_2_EAST PERIMETER, Heating, 19934.49819, 24918.12274, 0.87467, 1.09334, CHICAGO OHARE INTL AP ANN HTG 99.6% CONDNS DB, 1/21 19:00:00, -20.00000, 6.49857E-004, 137.78682, 7.41562, 5.94963E-002, 0.00000
 Zone Sizing Information, 997_OFFICE_2_NORTH PERIMETER, Cooling, 45881.52562, 52763.75446, 3.82380, 4.39737, CHICAGO OHARE INTL AP ANN CLG .4% CONDNS DB=>MWB, 7/21 08:50:00, 27.19250, 1.49611E-002, 416.49594, 22.41562, 0.17984, 0.00000
 Zone Sizing Information, 997_OFFICE_2_NORTH PERIMETER, Heating, 53895.34827, 67369.18534, 2.36484, 2.95605, CHICAGO OHARE INTL AP ANN HTG 99.6% CONDNS DB, 1/21 19:00:00, -20.00000, 6.49857E-004, 416.49594, 22.41562, 0.17984, 0.00000
 Zone Sizing Information, 997_OFFICE_2_SOUTH PERIMETER, Cooling, 50603.23211, 58193.71693, 4.21730, 4.84990, CHICAGO OHARE INTL AP ANN CLG .4% CONDNS DB=>MWB, 7/21 17:10:00, 31.65500, 1.49611E-002, 416.49594, 22.41562, 0.17984, 0.00000
 Zone Sizing Information, 997_OFFICE_2_SOUTH PERIMETER, Heating, 54670.89888, 68338.62360, 2.39887, 2.99858, CHICAGO OHARE INTL AP ANN HTG 99.6% CONDNS DB, 1/21 19:00:00, -20.00000, 6.49857E-004, 416.49594, 22.41562, 0.17984, 0.00000
 Zone Sizing Information, 997_OFFICE_2_WEST PERIMETER, Cooling, 8287.34830, 9530.45055, 0.69068, 0.79428, WILLOW GROVE NAS ANN CLG .4% CONDNS DB=>MWB, 7/21 15:10:00, 33.59500, 1.48819E-002, 137.78682, 7.41562, 5.94963E-002, 0.00000
 Zone Sizing Information, 997_OFFICE_2_WEST PERIMETER, Heating, 19656.77858, 24570.97322, 0.86248, 1.07810, CHICAGO OHARE INTL AP ANN HTG 99.6% CONDNS DB, 1/21 19:00:00, -20.00000, 6.49857E-004, 137.78682, 7.41562, 5.94963E-002, 0.00000
 Zone Sizing Information, 997_OFFICE_3_CORE, Cooling, 136019.18739, 156422.06550, 11.33624, 13.03667, WILLOW GROVE NAS ANN CLG .4% CONDNS DB=>MWB, 7/21 13:20:00, 33.35000, 1.48819E-002, 2212.02283, 119.05007, 0.95515, 0.00000
 Zone Sizing Information, 997_OFFICE_3_CORE, Heating, 168484.81794, 210606.02243, 7.39252, 9.24065, CHICAGO OHARE INTL AP ANN HTG 99.6% CONDNS DB, 1/21 19:00:00, -20.00000, 6.49857E-004, 2212.02283, 119.05007, 0.95515, 0.00000
 Zone Sizing Information, 997_OFFICE_3_EAST PERIMETER, Cooling, 12205.92566, 14036.81451, 1.01736, 1.16996, WILLOW GROVE NAS ANN CLG .4% CONDNS DB=>MWB, 7/21 14:20:00, 33.70000, 1.48819E-002, 137.78682, 7.41562, 5.94963E-002, 0.00000
 Zone Sizing Information, 997_OFFICE_3_EAST PERIMETER, Heating, 27803.71284, 34754.64105, 1.21942, 1.52428, CHICAGO OHARE INTL AP ANN HTG 99.6% CONDNS DB, 1/21 19:10:00, -20.00000, 6.49857E-004, 137.78682, 7.41562, 5.94963E-002, 0.00000
 Zone Sizing Information, 997_OFFICE_3_NORTH PERIMETER, Cooling, 50747.86179, 58360.04106, 4.22980, 4.86427, CHICAGO OHARE INTL AP ANN CLG .4% CONDNS DB=>MWB, 7/21 09:00:00, 27.52500, 1.49611E-002, 416.49594, 22.41562, 0.17984, 0.00000
 Zone Sizing Information, 997_OFFICE_3_NORTH PERIMETER, Heating, 77642.61690, 97053.27113, 3.40533, 4.25667, CHICAGO OHARE INTL AP ANN HTG 99.6% CONDNS DB, 1/21 19:10:00, -20.00000, 6.49857E-004, 416.49594, 22.41562, 0.17984, 0.00000
 Zone Sizing Information, 997_OFFICE_3_SOUTH PERIMETER, Cooling, 57689.22435, 66342.60800, 4.80834, 5.52959, CHICAGO OHARE INTL AP ANN CLG .4% CONDNS DB=>MWB, 7/21 17:10:00, 31.65500, 1.49611E-002, 416.49594, 22.41562, 0.17984, 0.00000
 Zone Sizing Information, 997_OFFICE_3_SOUTH PERIMETER, Heating, 78503.15724, 98128.94655, 3.44308, 4.30385, CHICAGO OHARE INTL AP ANN HTG 99.6% CONDNS DB, 1/21 19:10:00, -20.00000, 6.49857E-004, 416.49594, 22.41562, 0.17984, 0.00000
 Zone Sizing Information, 997_OFFICE_3_WEST PERIMETER, Cooling, 9816.17128, 11288.59697, 0.81817, 0.94090, WILLOW GROVE NAS ANN CLG .4% CONDNS DB=>MWB, 7/21 15:10:00, 33.59500, 1.48819E-002, 137.78682, 7.41562, 5.94963E-002, 0.00000
 Zone Sizing Information, 997_OFFICE_3_WEST PERIMETER, Heating, 27495.13019, 34368.91274, 1.20589, 1.50736, CHICAGO OHARE INTL AP ANN HTG 99.6% CONDNS DB, 1/21 19:10:00, -20.00000, 6.49857E-004, 137.78682, 7.41562, 5.94963E-002, 0.00000
! <System Sizing Information>, System Name, Field Description, Value
 System Sizing Information, AIRLOOP 493, Calculated Cooling Design Air Flow Rate [m3/s], 59.86313
 System Sizing Information, AIRLOOP 493, User Cooling Design Air Flow Rate [m3/s], 59.86313
 System Sizing Information, AIRLOOP 493, Calculated Heating Design Air Flow Rate [m3/s], 40.29345
 System Sizing Information, AIRLOOP 493, User Heating Design Air Flow Rate [m3/s], 40.29345
! <Component Sizing Information>, Component Type, Component Name, Input Field Description, Value
 Component Sizing Information, AirTerminal:SingleDuct:VAV:Reheat, AIR TERMINAL SINGLE DUCT VAV REHEAT 6, Design Size Maximum Air Flow Rate [m3/s], 6.57215
 Component Sizing Information, AirTerminal:SingleDuct:VAV:Reheat, AIR TERMINAL SINGLE DUCT VAV REHEAT 6, Design Size Constant Minimum Air Flow Fraction, 0.00000
 Component Sizing Information, AirTerminal:SingleDuct:VAV:Reheat, AIR TERMINAL SINGLE DUCT VAV REHEAT 6, User-Specified Constant Minimum Air Flow Fraction, 0.30000
 Component Sizing Information, AirTerminal:SingleDuct:VAV:Reheat, AIR TERMINAL SINGLE DUCT VAV REHEAT 6, Design Size Minimum Air Flow Rate [m3/s], 1.97165
 Component Sizing Information, AirTerminal:SingleDuct:VAV:Reheat, AIR TERMINAL SINGLE DUCT VAV REHEAT 6, Design Size Maximum Flow per Zone Floor Area during Reheat [m3/s-m2], 8.91332E-004
 Component Sizing Information, AirTerminal:SingleDuct:VAV:Reheat, AIR TERMINAL SINGLE DUCT VAV REHEAT 6, Design Size Maximum Flow Fraction during Reheat [], 0.30000
 Component Sizing Information, Coil:Heating:Electric, COIL HEATING ELECTRIC 7, Design Size Nominal Capacity [W], 55084.18165
 Component Sizing Information, AirTerminal:SingleDuct:VAV:Reheat, AIR TERMINAL SINGLE DUCT VAV REHEAT 4, Design Size Maximum Air Flow Rate [m3/s], 1.07999
 Component Sizing Information, AirTerminal:SingleDuct:VAV:Reheat, AIR TERMINAL SINGLE DUCT VAV REHEAT 4, Design Size Constant Minimum Air Flow Fraction, 0.00000
 Component Sizing Information, AirTerminal:SingleDuct:VAV:Reheat, AIR TERMINAL SINGLE DUCT VAV REHEAT 4, User-Specified Constant Minimum Air Flow Fraction, 0.30000
 Component Sizing Information, AirTerminal:SingleDuct:VAV:Reheat, AIR TERMINAL SINGLE DUCT VAV REHEAT 4, Design Size Minimum Air Flow Rate [m3/s], 0.32400
 Component Sizing Information, AirTerminal:SingleDuct:VAV:Reheat, AIR TERMINAL SINGLE DUCT VAV REHEAT 4, Design Size Maximum Flow per Zone Floor Area during Reheat [m3/s-m2], 2.35144E-003
 Component Sizing Information, AirTerminal:SingleDuct:VAV:Reheat, AIR TERMINAL SINGLE DUCT VAV REHEAT 4, Design Size Maximum Flow Fraction during Reheat [], 0.30000
 Component Sizing Information, Coil:Heating:Electric, COIL HEATING ELECTRIC 5, Design Size Nominal Capacity [W], 30173.01859
 Component Sizing Information, AirTerminal:SingleDuct:VAV:Reheat, AIR TERMINAL SINGLE DUCT VAV REHEAT 3, Design Size Maximum Air Flow Rate [m3/s], 3.64084
 Component Sizing Information, AirTerminal:SingleDuct:VAV:Reheat, AIR TERMINAL SINGLE DUCT VAV REHEAT 3, Design Size Constant Minimum Air Flow Fraction, 0.00000
 Component Sizing Information, AirTerminal:SingleDuct:VAV:Reheat, AIR TERMINAL SINGLE DUCT VAV REHEAT 3, User-Specified Constant Minimum Air Flow Fraction, 0.30000
 Component Sizing Information, AirTerminal:SingleDuct:VAV:Reheat, AIR TERMINAL SINGLE DUCT VAV REHEAT 3, Design Size Minimum Air Flow Rate [m3/s], 1.09225
 Component Sizing Information, AirTerminal:SingleDuct:VAV:Reheat, AIR TERMINAL SINGLE DUCT VAV REHEAT 3, Design Size Maximum Flow per Zone Floor Area during Reheat [m3/s-m2], 2.62248E-003
 Component Sizing Information, AirTerminal:SingleDuct:VAV:Reheat, AIR TERMINAL SINGLE DUCT VAV REHEAT 3, Design Size Maximum Flow Fraction during Reheat [], 0.30000
 Component Sizing Information, Coil:Heating:Electric, COIL HEATING ELECTRIC 4, Design Size Nominal Capacity [W], 81798.33701
 Component Sizing Information, AirTerminal:SingleDuct:VAV:Reheat, AIR TERMINAL SINGLE DUCT VAV REHEAT 5, Design Size Maximum Air Flow Rate [m3/s], 3.98788
 Component Sizing Information, AirTerminal:SingleDuct:VAV:Reheat, AIR TERMINAL SINGLE DUCT VAV REHEAT 5, Design Size Constant Minimum Air Flow Fraction, 0.00000
 Component Sizing Information, AirTerminal:SingleDuct:VAV:Reheat, AIR TERMINAL SINGLE DUCT VAV REHEAT 5, User-Specified Constant Minimum Air Flow Fraction, 0.30000
 Component Sizing Information, AirTerminal:SingleDuct:VAV:Reheat, AIR TERMINAL SINGLE DUCT VAV REHEAT 5, Design Size Minimum Air Flow Rate [m3/s], 1.19636
 Component Sizing Information, AirTerminal:SingleDuct:VAV:Reheat, AIR TERMINAL SINGLE DUCT VAV REHEAT 5, Design Size Maximum Flow per Zone Floor Area during Reheat [m3/s-m2], 2.87245E-003
 Component Sizing Information, AirTerminal:SingleDuct:VAV:Reheat, AIR TERMINAL SINGLE DUCT VAV REHEAT 5, Design Size Maximum Flow Fraction during Reheat [], 0.30000
 Component Sizing Information, Coil:Heating:Electric, COIL HEATING ELECTRIC 6, Design Size Nominal Capacity [W], 82667.70980
 Component Sizing Information, AirTerminal:SingleDuct:VAV:Reheat, AIR TERMINAL SINGLE DUCT VAV REHEAT 2, Design Size Maximum Air Flow Rate [m3/s], 1.05604
 Component Sizing Information, AirTerminal:SingleDuct:VAV:Reheat, AIR TERMINAL SINGLE DUCT VAV REHEAT 2, Design Size Constant Minimum Air Flow Fraction, 0.00000
 Component Sizing Information, AirTerminal:SingleDuct:VAV:Reheat, AIR TERMINAL SINGLE DUCT VAV REHEAT 2, User-Specified Constant Minimum Air Flow Fraction, 0.30000
 Component Sizing Information, AirTerminal:SingleDuct:VAV:Reheat, AIR TERMINAL SINGLE DUCT VAV REHEAT 2, Design Size Minimum Air Flow Rate [m3/s], 0.31681
 Component Sizing Information, AirTerminal:SingleDuct:VAV:Reheat, AIR TERMINAL SINGLE DUCT VAV REHEAT 2, Design Size Maximum Flow per Zone Floor Area during Reheat [m3/s-m2], 2.29929E-003
 Component Sizing Information, AirTerminal:SingleDuct:VAV:Reheat, AIR TERMINAL SINGLE DUCT VAV REHEAT 2, Design Size Maximum Flow Fraction during Reheat [], 0.30000
 Component Sizing Information, Coil:Heating:Electric, COIL HEATING ELECTRIC 3, Design Size Nominal Capacity [W], 29503.86697
 Component Sizing Information, AirTerminal:SingleDuct:VAV:Reheat, AIR TERMINAL SINGLE DUCT VAV REHEAT 11, Design Size Maximum Air Flow Rate [m3/s], 7.48513
 Component Sizing Information, AirTerminal:SingleDuct:VAV:Reheat, AIR TERMINAL SINGLE DUCT VAV REHEAT 11, Design Size Constant Minimum Air Flow Fraction, 0.00000
 Component Sizing Information, AirTerminal:SingleDuct:VAV:Reheat, AIR TERMINAL SINGLE DUCT VAV REHEAT 11, User-Specified Constant Minimum Air Flow Fraction, 0.30000
 Component Sizing Information, AirTerminal:SingleDuct:VAV:Reheat, AIR TERMINAL SINGLE DUCT VAV REHEAT 11, Design Size Minimum Air Flow Rate [m3/s], 2.24554
 Component Sizing Information, AirTerminal:SingleDuct:VAV:Reheat, AIR TERMINAL SINGLE DUCT VAV REHEAT 11, Design Size Maximum Flow per Zone Floor Area during Reheat [m3/s-m2], 1.01515E-003
 Component Sizing Information, AirTerminal:SingleDuct:VAV:Reheat, AIR TERMINAL SINGLE DUCT VAV REHEAT 11, Design Size Maximum Flow Fraction during Reheat [], 0.30000
 Component Sizing Information, Coil:Heating:Electric, COIL HEATING ELECTRIC 12, Design Size Nominal Capacity [W], 62736.23195
 Component Sizing Information, AirTerminal:SingleDuct:VAV:Reheat, AIR TERMINAL SINGLE DUCT VAV REHEAT 9, Design Size Maximum Air Flow Rate [m3/s], 1.09334
 Component Sizing Information, AirTerminal:SingleDuct:VAV:Reheat, AIR TERMINAL SINGLE DUCT VAV REHEAT 9, Design Size Constant Minimum Air Flow Fraction, 0.00000
 Component Sizing Information, AirTerminal:SingleDuct:VAV:Reheat, AIR TERMINAL SINGLE DUCT VAV REHEAT 9, User-Specified Constant Minimum Air Flow Fraction, 0.30000
 Component Sizing Information, AirTerminal:SingleDuct:VAV:Reheat, AIR TERMINAL SINGLE DUCT VAV REHEAT 9, Design Size Minimum Air Flow Rate [m3/s], 0.32800
 Component Sizing Information, AirTerminal:SingleDuct:VAV:Reheat, AIR TERMINAL SINGLE DUCT VAV REHEAT 9, Design Size Maximum Flow per Zone Floor Area during Reheat [m3/s-m2], 2.38050E-003
 Component Sizing Information, AirTerminal:SingleDuct:VAV:Reheat, AIR TERMINAL SINGLE DUCT VAV REHEAT 9, Design Size Maximum Flow Fraction during Reheat [], 0.30000
 Component Sizing Information, Coil:Heating:Electric, COIL HEATING ELECTRIC 10, Design Size Nominal Capacity [W], 30545.81688
 Component Sizing Information, AirTerminal:SingleDuct:VAV:Reheat, AIR TERMINAL SINGLE DUCT VAV REHEAT 8, Design Size Maximum Air Flow Rate [m3/s], 4.39737
 Component Sizing Information, AirTerminal:SingleDuct:VAV:Reheat, AIR TERMINAL SINGLE DUCT VAV REHEAT 8, Design Size Constant Minimum Air Flow Fraction, 0.00000
 Component Sizing Information, AirTerminal:SingleDuct:VAV:Reheat, AIR TERMINAL SINGLE DUCT VAV REHEAT 8, User-Specified Constant Minimum Air Flow Fraction, 0.30000
 Component Sizing Information, AirTerminal:SingleDuct:VAV:Reheat, AIR TERMINAL SINGLE DUCT VAV REHEAT 8, Design Size Minimum Air Flow Rate [m3/s], 1.31921
 Component Sizing Information, AirTerminal:SingleDuct:VAV:Reheat, AIR TERMINAL SINGLE DUCT VAV REHEAT 8, Design Size Maximum Flow per Zone Floor Area during Reheat [m3/s-m2], 3.16740E-003
 Component Sizing Information, AirTerminal:SingleDuct:VAV:Reheat, AIR TERMINAL SINGLE DUCT VAV REHEAT 8, Design Size Maximum Flow Fraction during Reheat [], 0.30000
 Component Sizing Information, Coil:Heating:Electric, COIL HEATING ELECTRIC 9, Design Size Nominal Capacity [W], 82586.53391
 Component Sizing Information, AirTerminal:SingleDuct:VAV:Reheat, AIR TERMINAL SINGLE DUCT VAV REHEAT 10, Design Size Maximum Air Flow Rate [m3/s], 4.84990
 Component Sizing Information, AirTerminal:SingleDuct:VAV:Reheat, AIR TERMINAL SINGLE DUCT VAV REHEAT 10, Design Size Constant Minimum Air Flow Fraction, 0.00000
 Component Sizing Information, AirTerminal:SingleDuct:VAV:Reheat, AIR TERMINAL SINGLE DUCT VAV REHEAT 10, User-Specified Constant Minimum Air Flow Fraction, 0.30000
 Component Sizing Information, AirTerminal:SingleDuct:VAV:Reheat, AIR TERMINAL SINGLE DUCT VAV REHEAT 10, Design Size Minimum Air Flow Rate [m3/s], 1.45497
 Component Sizing Information, AirTerminal:SingleDuct:VAV:Reheat, AIR TERMINAL SINGLE DUCT VAV REHEAT 10, Design Size Maximum Flow per Zone Floor Area during Reheat [m3/s-m2], 3.49336E-003
 Component Sizing Information, AirTerminal:SingleDuct:VAV:Reheat, AIR TERMINAL SINGLE DUCT VAV REHEAT 10, Design Size Maximum Flow Fraction during Reheat [], 0.30000
 Component Sizing Information, Coil:Heating:Electric, COIL HEATING ELECTRIC 11, Design Size Nominal Capacity [W], 83774.94211
 Component Sizing Information, AirTerminal:SingleDuct:VAV:Reheat, AIR TERMINAL SINGLE DUCT VAV REHEAT 7, Design Size Maximum Air Flow Rate [m3/s], 1.07810
 Component Sizing Information, AirTerminal:SingleDuct:VAV:Reheat, AIR TERMINAL SINGLE DUCT VAV REHEAT 7, Design Size Constant Minimum Air Flow Fraction, 0.00000
 Component Sizing Information, AirTerminal:SingleDuct:VAV:Reheat, AIR TERMINAL SINGLE DUCT VAV REHEAT 7, User-Specified Constant Minimum Air Flow Fraction, 0.30000
 Component Sizing Information, AirTerminal:SingleDuct:VAV:Reheat, AIR TERMINAL SINGLE DUCT VAV REHEAT 7, Design Size Minimum Air Flow Rate [m3/s], 0.32343
 Component Sizing Information, AirTerminal:SingleDuct:VAV:Reheat, AIR TERMINAL SINGLE DUCT VAV REHEAT 7, Design Size Maximum Flow per Zone Floor Area during Reheat [m3/s-m2], 2.34733E-003
 Component Sizing Information, AirTerminal:SingleDuct:VAV:Reheat, AIR TERMINAL SINGLE DUCT VAV REHEAT 7, Design Size Maximum Flow Fraction during Reheat [], 0.30000
 Component Sizing Information, Coil:Heating:Electric, COIL HEATING ELECTRIC 8, Design Size Nominal Capacity [W], 30120.26560
 Component Sizing Information, AirTerminal:SingleDuct:VAV:Reheat, AIR TERMINAL SINGLE DUCT VAV REHEAT 16, Design Size Maximum Air Flow Rate [m3/s], 13.03667
 Component Sizing Information, AirTerminal:SingleDuct:VAV:Reheat, AIR TERMINAL SINGLE DUCT VAV REHEAT 16, Design Size Constant Minimum Air Flow Fraction, 0.00000
 Component Sizing Information, AirTerminal:SingleDuct:VAV:Reheat, AIR TERMINAL SINGLE DUCT VAV REHEAT 16, User-Specified Constant Minimum Air Flow Fraction, 0.30000
 Component Sizing Information, AirTerminal:SingleDuct:VAV:Reheat, AIR TERMINAL SINGLE DUCT VAV REHEAT 16, Design Size Minimum Air Flow Rate [m3/s], 3.91100
 Component Sizing Information, AirTerminal:SingleDuct:VAV:Reheat, AIR TERMINAL SINGLE DUCT VAV REHEAT 16, Design Size Maximum Flow per Zone Floor Area during Reheat [m3/s-m2], 1.76807E-003
 Component Sizing Information, AirTerminal:SingleDuct:VAV:Reheat, AIR TERMINAL SINGLE DUCT VAV REHEAT 16, Design Size Maximum Flow Fraction during Reheat [], 0.30000
 Component Sizing Information, Coil:Heating:Electric, COIL HEATING ELECTRIC 17, Design Size Nominal Capacity [W], 258166.86688
 Component Sizing Information, AirTerminal:SingleDuct:VAV:Reheat, AIR TERMINAL SINGLE DUCT VAV REHEAT 14, Design Size Maximum Air Flow Rate [m3/s], 1.52428
 Component Sizing Information, AirTerminal:SingleDuct:VAV:Reheat, AIR TERMINAL SINGLE DUCT VAV REHEAT 14, Design Size Constant Minimum Air Flow Fraction, 0.00000
 Component Sizing Information, AirTerminal:SingleDuct:VAV:Reheat, AIR TERMINAL SINGLE DUCT VAV REHEAT 14, User-Specified Constant Minimum Air Flow Fraction, 0.30000
 Component Sizing Information, AirTerminal:SingleDuct:VAV:Reheat, AIR TERMINAL SINGLE DUCT VAV REHEAT 14, Design Size Minimum Air Flow Rate [m3/s], 0.45728
 Component Sizing Information, AirTerminal:SingleDuct:VAV:Reheat, AIR TERMINAL SINGLE DUCT VAV REHEAT 14, Design Size Maximum Flow per Zone Floor Area during Reheat [m3/s-m2], 3.31878E-003
 Component Sizing Information, AirTerminal:SingleDuct:VAV:Reheat, AIR TERMINAL SINGLE DUCT VAV REHEAT 14, Design Size Maximum Flow Fraction during Reheat [], 0.30000
 Component Sizing Information, Coil:Heating:Electric, COIL HEATING ELECTRIC 15, Design Size Nominal Capacity [W], 42585.59659
 Component Sizing Information, AirTerminal:SingleDuct:VAV:Reheat, AIR TERMINAL SINGLE DUCT VAV REHEAT 13, Design Size Maximum Air Flow Rate [m3/s], 4.86427
 Component Sizing Information, AirTerminal:SingleDuct:VAV:Reheat, AIR TERMINAL SINGLE DUCT VAV REHEAT 13, Design Size Constant Minimum Air Flow Fraction, 0.00000
 Component Sizing Information, AirTerminal:SingleDuct:VAV:Reheat, AIR TERMINAL SINGLE DUCT VAV REHEAT 13, User-Specified Constant Minimum Air Flow Fraction, 0.30000
 Component Sizing Information, AirTerminal:SingleDuct:VAV:Reheat, AIR TERMINAL SINGLE DUCT VAV REHEAT 13, Design Size Minimum Air Flow Rate [m3/s], 1.45928
 Component Sizing Information, AirTerminal:SingleDuct:VAV:Reheat, AIR TERMINAL SINGLE DUCT VAV REHEAT 13, Design Size Maximum Flow per Zone Floor Area during Reheat [m3/s-m2], 3.50371E-003
 Component Sizing Information, AirTerminal:SingleDuct:VAV:Reheat, AIR TERMINAL SINGLE DUCT VAV REHEAT 13, Design Size Maximum Flow Fraction during Reheat [], 0.30000
 Component Sizing Information, Coil:Heating:Electric, COIL HEATING ELECTRIC 14, Design Size Nominal Capacity [W], 118923.50123
 Component Sizing Information, AirTerminal:SingleDuct:VAV:Reheat, AIR TERMINAL SINGLE DUCT VAV REHEAT 15, Design Size Maximum Air Flow Rate [m3/s], 5.52959
 Component Sizing Information, AirTerminal:SingleDuct:VAV:Reheat, AIR TERMINAL SINGLE DUCT VAV REHEAT 15, Design Size Constant Minimum Air Flow Fraction, 0.00000
 Component Sizing Information, AirTerminal:SingleDuct:VAV:Reheat, AIR TERMINAL SINGLE DUCT VAV REHEAT 15, User-Specified Constant Minimum Air Flow Fraction, 0.30000
 Component Sizing Information, AirTerminal:SingleDuct:VAV:Reheat, AIR TERMINAL SINGLE DUCT VAV REHEAT 15, Design Size Minimum Air Flow Rate [m3/s], 1.65888
 Component Sizing Information, AirTerminal:SingleDuct:VAV:Reheat, AIR TERMINAL SINGLE DUCT VAV REHEAT 15, Design Size Maximum Flow per Zone Floor Area during Reheat [m3/s-m2], 3.98293E-003
 Component Sizing Information, AirTerminal:SingleDuct:VAV:Reheat, AIR TERMINAL SINGLE DUCT VAV REHEAT 15, Design Size Maximum Flow Fraction during Reheat [], 0.30000
 Component Sizing Information, Coil:Heating:Electric, COIL HEATING ELECTRIC 16, Design Size Nominal Capacity [W], 120241.62608
 Component Sizing Information, AirTerminal:SingleDuct:VAV:Reheat, AIR TERMINAL SINGLE DUCT VAV REHEAT 12, Design Size Maximum Air Flow Rate [m3/s], 1.50736
 Component Sizing Information, AirTerminal:SingleDuct:VAV:Reheat, AIR TERMINAL SINGLE DUCT VAV REHEAT 12, Design Size Constant Minimum Air Flow Fraction, 0.00000
 Component Sizing Information, AirTerminal:SingleDuct:VAV:Reheat, AIR TERMINAL SINGLE DUCT VAV REHEAT 12, User-Specified Constant Minimum Air Flow Fraction, 0.30000
 Component Sizing Information, AirTerminal:SingleDuct:VAV:Reheat, AIR TERMINAL SINGLE DUCT VAV REHEAT 12, Design Size Minimum Air Flow Rate [m3/s], 0.45221
 Component Sizing Information, AirTerminal:SingleDuct:VAV:Reheat, AIR TERMINAL SINGLE DUCT VAV REHEAT 12, Design Size Maximum Flow per Zone Floor Area during Reheat [m3/s-m2], 3.28194E-003
 Component Sizing Information, AirTerminal:SingleDuct:VAV:Reheat, AIR TERMINAL SINGLE DUCT VAV REHEAT 12, Design Size Maximum Flow Fraction during Reheat [], 0.30000
 Component Sizing Information, Coil:Heating:Electric, COIL HEATING ELECTRIC 13, Design Size Nominal Capacity [W], 42112.93516
 Component Sizing Information, AirLoopHVAC, AIRLOOP 493, Design Supply Air Flow Rate [m3/s], 59.86313
!<Controller:MechanicalVentilation>,Name,Availability Schedule Name,Demand Controlled Ventilation {Yes/No},System Outdoor Air Method,Zone Maximum Outdoor Air Fraction,Number of Zones,Zone Name,DSOA Name,DSZAD Name
 Controller:MechanicalVentilation,CONTROLLER MECHANICAL VENTILATION 1,ALWAYS ON DISCRETE,No,ZoneSum,1.00,15,997_OFFICE_1_CORE,PNNL_ASSET_RATING_OFFICE_OUTDOOR_AIR,997_OFFICE_1_CORE DESIGN SPEC ZONE AIR DIST,997_OFFICE_1_EAST PERIMETER,PNNL_ASSET_RATING_OFFICE_OUTDOOR_AIR,997_OFFICE_1_EAST PERIMETER DESIGN SPEC ZONE AIR DIST,997_OFFICE_1_NORTH PERIMETER,PNNL_ASSET_RATING_OFFICE_OUTDOOR_AIR,997_OFFICE_1_NORTH PERIMETER DESIGN SPEC ZONE AIR DIST,997_OFFICE_1_SOUTH PERIMETER,PNNL_ASSET_RATING_OFFICE_OUTDOOR_AIR,997_OFFICE_1_SOUTH PERIMETER DESIGN SPEC ZONE AIR DIST,997_OFFICE_1_WEST PERIMETER,PNNL_ASSET_RATING_OFFICE_OUTDOOR_AIR,997_OFFICE_1_WEST PERIMETER DESIGN SPEC ZONE AIR DIST,997_OFFICE_2_CORE,PNNL_ASSET_RATING_OFFICE_OUTDOOR_AIR,997_OFFICE_2_CORE DESIGN SPEC ZONE AIR DIST,997_OFFICE_2_EAST PERIMETER,PNNL_ASSET_RATING_OFFICE_OUTDOOR_AIR,997_OFFICE_2_EAST PERIMETER DESIGN SPEC ZONE AIR DIST,997_OFFICE_2_NORTH PERIMETER,PNNL_ASSET_RATING_OFFICE_OUTDOOR_AIR,997_OFFICE_2_NORTH PERIMETER DESIGN SPEC ZONE AIR DIST,997_OFFICE_2_SOUTH PERIMETER,PNNL_ASSET_RATING_OFFICE_OUTDOOR_AIR,997_OFFICE_2_SOUTH PERIMETER DESIGN SPEC ZONE AIR DIST,997_OFFICE_2_WEST PERIMETER,PNNL_ASSET_RATING_OFFICE_OUTDOOR_AIR,997_OFFICE_2_WEST PERIMETER DESIGN SPEC ZONE AIR DIST,997_OFFICE_3_CORE,PNNL_ASSET_RATING_OFFICE_OUTDOOR_AIR,997_OFFICE_3_CORE DESIGN SPEC ZONE AIR DIST,997_OFFICE_3_EAST PERIMETER,PNNL_ASSET_RATING_OFFICE_OUTDOOR_AIR,997_OFFICE_3_EAST PERIMETER DESIGN SPEC ZONE AIR DIST,997_OFFICE_3_NORTH PERIMETER,PNNL_ASSET_RATING_OFFICE_OUTDOOR_AIR,997_OFFICE_3_NORTH PERIMETER DESIGN SPEC ZONE AIR DIST,997_OFFICE_3_SOUTH PERIMETER,PNNL_ASSET_RATING_OFFICE_OUTDOOR_AIR,997_OFFICE_3_SOUTH PERIMETER DESIGN SPEC ZONE AIR DIST,997_OFFICE_3_WEST PERIMETER,PNNL_ASSET_RATING_OFFICE_OUTDOOR_AIR,997_OFFICE_3_WEST PERIMETER DESIGN SPEC ZONE AIR DIST
 Component Sizing Information, Controller:OutdoorAir, CONTROLLER OUTDOOR AIR 1, Maximum Outdoor Air Flow Rate [m3/s], 59.86313
 Component Sizing Information, Controller:OutdoorAir, CONTROLLER OUTDOOR AIR 1, Minimum Outdoor Air Flow Rate [m3/s], 4.30149
 Component Sizing Information, Coil:Cooling:DX:TwoSpeed, COIL COOLING DX TWO SPEED 1, Design Size High Speed Rated Air Flow Rate [m3/s], 59.86313
 Component Sizing Information, Coil:Cooling:DX:TwoSpeed, COIL COOLING DX TWO SPEED 1, Design Size High Speed Gross Rated Total Cooling Capacity [W], 1486543.99713
 Component Sizing Information, Coil:Cooling:DX:TwoSpeed, COIL COOLING DX TWO SPEED 1, Design Size High Speed Rated Sensible Heat Ratio, 0.67608
 Component Sizing Information, Coil:Cooling:DX:TwoSpeed, COIL COOLING DX TWO SPEED 1, Design Size Low Speed Rated Air Flow Rate [m3/s], 19.95238
 Component Sizing Information, Coil:Cooling:DX:TwoSpeed, COIL COOLING DX TWO SPEED 1, Design Size Low Speed Gross Rated Total Cooling Capacity [W], 495465.11424
 Component Sizing Information, Coil:Cooling:DX:TwoSpeed, COIL COOLING DX TWO SPEED 1, Design Size Low Speed Gross Rated Sensible Heat Ratio, 0.67608
 Component Sizing Information, Coil:Cooling:DX:TwoSpeed, COIL COOLING DX TWO SPEED 1, User-Specified Low Speed Gross Rated Sensible Heat Ratio, 0.69000
! <VAV DX Cooling Coil Standard Rating Information>, DX Coil Type, DX Coil Name, Fan Type, Fan Name, Standard Net Cooling Capacity {W}, Standard Net Cooling Capacity {Btu/h}, IEER {Btu/W-h}, COP 100% Capacity {W/W}, COP 75% Capacity {W/W}, COP 50% Capacity {W/W}, COP 25% Capacity {W/W}, EER 100% Capacity {Btu/W-h}, EER 75% Capacity {Btu/W-h}, EER 50% Capacity {Btu/W-h}, EER 25% Capacity {Btu/W-h}, Supply Air Flow 100% {kg/s}, Supply Air Flow 75% {kg/s},Supply Air Flow 50% {kg/s},Supply Air Flow 25% {kg/s}
 VAV DX Cooling Coil Standard Rating Information, Coil:Cooling:DX:TwoSpeed,COIL COOLING DX TWO SPEED 1,N/A,N/A,1442769.29,4922933.15,9.58,2.51,2.74,2.91,3.00,8.56,9.35,9.92,10.25,67.6052,53.7030,36.3970,15.8803,
 Component Sizing Information, Coil:Heating:Electric, COIL HEATING ELECTRIC 1, Design Size Nominal Capacity [W], 765004.42457
 Component Sizing Information, Fan:VariableVolume, FAN VARIABLE VOLUME 1, Design Size Maximum Flow Rate [m3/s], 59.86313
Water Heater Information,WaterHeater:Mixed,WATER HEATER MIXED 1,0.4542,845000.0,1.469,0.5774
 Component Sizing Information, PlantLoop, SWPLANT 465, Maximum Loop Flow Rate [m3/s], 1.11814E-004
 Component Sizing Information, PlantLoop, SWPLANT 465, Plant Loop Volume [m3], 8.38607E-002
 Component Sizing Information, Pump:VariableSpeed, SHW: PUMP FOR SERVICE HOT WATER, Design Flow Rate [m3/s], 1.11814E-004
 Component Sizing Information, Pump:VariableSpeed, SHW: PUMP FOR SERVICE HOT WATER, Design Power Consumption [W], 28.56712
 Component Sizing Information, WaterHeater:Mixed, WATER HEATER MIXED 1, Use Side Design Flow Rate [m3/s], 1.11814E-004
! <Environment>,Environment Name,Environment Type, Start Date, End Date, Start DayOfWeek, Duration {#days}, Source:Start DayOfWeek,  Use Daylight Saving, Use Holidays, Apply Weekend Holiday Rule,  Use Rain Values, Use Snow Values
! <Environment:Special Days>, Special Day Name, Special Day Type, Source, Start Date, Duration {#days}
! <Environment:Daylight Saving>, Daylight Saving Indicator, Source, Start Date, End Date
! <Environment:WarmupDays>, NumberofWarmupDays
Environment,RUN PERIOD 1,WeatherFileRunPeriod,01/01,12/31,Sunday,365,Use RunPeriod Specified Day,No,No,No,Yes,Yes
Environment:Daylight Saving,No,RunPeriod Object
Environment:WarmupDays, 11
! <Tabular Report>,Style,Unit Conversion
Tabular Report,HTML,None
! <Warmup Convergence Information>,Zone Name,Environment Type/Name,Average Warmup Temperature Difference {deltaC},Std Dev Warmup Temperature Difference {deltaC},Max Temperature Pass/Fail Convergence,Min Temperature Pass/Fail Convergence,Average Warmup Load Difference {W},Std Dev Warmup Load Difference {W},Heating Load Pass/Fail Convergence,Cooling Load Pass/Fail Convergence
 Warmup Convergence Information,997_OFFICE_1_CORE,RunPeriod: RUN PERIOD 1,6.4955038313E-003,6.4283223647E-003,Pass,Pass,0.0000000000,0.0000000000,Pass,Pass
 Warmup Convergence Information,997_OFFICE_1_EAST PERIMETER,RunPeriod: RUN PERIOD 1,9.5407030493E-002,0.1272201102,Pass,Pass,0.0000000000,0.0000000000,Pass,Pass
 Warmup Convergence Information,997_OFFICE_1_NORTH PERIMETER,RunPeriod: RUN PERIOD 1,6.9878636968E-002,0.1166646691,Pass,Pass,0.0000000000,0.0000000000,Pass,Pass
 Warmup Convergence Information,997_OFFICE_1_SOUTH PERIMETER,RunPeriod: RUN PERIOD 1,5.2149731828E-002,8.1575164759E-002,Pass,Pass,0.0000000000,0.0000000000,Pass,Pass
 Warmup Convergence Information,997_OFFICE_1_WEST PERIMETER,RunPeriod: RUN PERIOD 1,5.3978389453E-002,8.6340932724E-002,Pass,Pass,0.0000000000,0.0000000000,Pass,Pass
 Warmup Convergence Information,997_OFFICE_2_CORE,RunPeriod: RUN PERIOD 1,1.2678028244E-002,1.0434248864E-002,Pass,Pass,0.0000000000,0.0000000000,Pass,Pass
 Warmup Convergence Information,997_OFFICE_2_EAST PERIMETER,RunPeriod: RUN PERIOD 1,0.1394690798,0.1821898636,Pass,Pass,0.0000000000,0.0000000000,Pass,Pass
 Warmup Convergence Information,997_OFFICE_2_NORTH PERIMETER,RunPeriod: RUN PERIOD 1,0.1042201063,0.1777281441,Pass,Pass,0.0000000000,0.0000000000,Pass,Pass
 Warmup Convergence Information,997_OFFICE_2_SOUTH PERIMETER,RunPeriod: RUN PERIOD 1,6.5386127306E-002,9.5786458020E-002,Pass,Pass,0.0000000000,0.0000000000,Pass,Pass
 Warmup Convergence Information,997_OFFICE_2_WEST PERIMETER,RunPeriod: RUN PERIOD 1,6.6081160924E-002,9.9831658890E-002,Pass,Pass,0.0000000000,0.0000000000,Pass,Pass
 Warmup Convergence Information,997_OFFICE_3_CORE,RunPeriod: RUN PERIOD 1,7.7077546334E-002,0.1035051487,Pass,Pass,0.0000000000,0.0000000000,Pass,Pass
 Warmup Convergence Information,997_OFFICE_3_EAST PERIMETER,RunPeriod: RUN PERIOD 1,0.1667528234,0.2161508804,Pass,Pass,0.0000000000,0.0000000000,Pass,Pass
 Warmup Convergence Information,997_OFFICE_3_NORTH PERIMETER,RunPeriod: RUN PERIOD 1,0.1235178919,0.2024787469,Pass,Pass,0.0000000000,0.0000000000,Pass,Pass
 Warmup Convergence Information,997_OFFICE_3_SOUTH PERIMETER,RunPeriod: RUN PERIOD 1,0.1021269541,0.1378202754,Pass,Pass,0.0000000000,0.0000000000,Pass,Pass
 Warmup Convergence Information,997_OFFICE_3_WEST PERIMETER,RunPeriod: RUN PERIOD 1,0.1019725094,0.1397578587,Pass,Pass,0.0000000000,0.0000000000,Pass,Pass
! <Program Control Information:Threads/Parallel Sims>, Threading Supported,Maximum Number of Threads, Env Set Threads (OMP_NUM_THREADS), EP Env Set Threads (EP_OMP_NUM_THREADS), IDF Set Threads, Number of Threads Used (Interior Radiant Exchange), Number Nominal Surfaces, Number Parallel Sims
Program Control:Threads/Parallel Sims, No,1, N/A, N/A, N/A, N/A, N/A, N/A
End of Data
